@<TRIPOS>MOLECULE
ZINC000096014556
95    98    1     0     0
SMALL
USER_CHARGES
@<TRIPOS>ATOM
1      C1     -0.0985    1.3509    0.2822 C.3      1 ZINC000096014556   -0.1500
2      C2     -0.1133   -0.1556    0.0155 C.3      1 ZINC000096014556   -0.1000
3      C3      0.5901   -0.8836    1.1627 C.3      1 ZINC000096014556   -0.1300
4      C4     -1.5606   -0.6414   -0.0855 C.3      1 ZINC000096014556    0.1400
5      O5     -2.2415   -0.3681    1.1407 O.3      1 ZINC000096014556   -0.7600
6      P6     -3.7866   -0.7464    1.3890 P.3      1 ZINC000096014556    2.2900
7      O7     -4.6557   -0.1184    0.2767 O.co2    1 ZINC000096014556   -1.1000
8      O8     -3.9509   -2.2825    1.3654 O.co2    1 ZINC000096014556   -1.1100
9      O9     -4.2548   -0.1785    2.8209 O.3      1 ZINC000096014556   -1.0900
10     P10    -5.6875    0.0547    3.5174 P.3      1 ZINC000096014556    2.2900
11     O11    -6.6844    0.6047    2.4731 O.co2    1 ZINC000096014556   -1.1000
12     O12    -6.2135   -1.2867    4.0750 O.co2    1 ZINC000096014556   -1.1000
13     O13    -5.5331    1.1127    4.7211 O.3      1 ZINC000096014556   -0.7700
14     C14    -6.6453    1.6085    5.4689 C.3      1 ZINC000096014556    0.1400
15     C15    -6.1483    2.5907    6.5316 C.3      1 ZINC000096014556    0.0700
16     H16    -5.3807    2.1241    7.1491 H        1 ZINC000096014556    0.1000
17     O17    -5.6334    3.7875    5.9084 O.3      1 ZINC000096014556   -0.3500
18     C18    -5.6655    4.7977    6.9401 C.3      1 ZINC000096014556    0.2600
19     H19    -4.8245    4.6707    7.6218 H        1 ZINC000096014556    0.1200
20     N20    -5.6403    6.1359    6.3445 N.pl3    1 ZINC000096014556   -0.4500
21     C21    -6.0404    6.4653    5.0836 C.2      1 ZINC000096014556    0.2900
22     N22    -5.8814    7.7417    4.8859 N.2      1 ZINC000096014556   -0.4800
23     C23    -5.3706    8.3110    6.0040 C.ar     1 ZINC000096014556   -0.1000
24     C24    -5.0011    9.6170    6.3675 C.ar     1 ZINC000096014556    0.5000
25     N25    -5.1372   10.6657    5.4748 N.pl3    1 ZINC000096014556   -0.8300
26     N26    -4.5183    9.8219    7.5887 N.ar     1 ZINC000096014556   -0.6000
27     C27    -4.3854    8.8274    8.4472 C.ar     1 ZINC000096014556    0.3400
28     N28    -4.7178    7.5886    8.1506 N.ar     1 ZINC000096014556   -0.5400
29     C29    -5.2153    7.2885    6.9554 C.ar     1 ZINC000096014556    0.2900
30     C30    -6.9997    4.5617    7.6821 C.3      1 ZINC000096014556    0.0600
31     H31    -7.7809    5.2049    7.2771 H        1 ZINC000096014556    0.0700
32     O32    -6.8406    4.7912    9.0836 O.3      1 ZINC000096014556   -0.5000
33     C33    -7.3241    3.0741    7.4091 C.3      1 ZINC000096014556    0.1500
34     H34    -8.2659    2.9817    6.8681 H        1 ZINC000096014556    0.0800
35     O35    -7.3778    2.3403    8.6341 O.3      1 ZINC000096014556   -0.7200
36     P36    -8.6839    1.5312    9.1151 P.3      1 ZINC000096014556    2.1200
37     O37    -9.9162    2.4982    9.1433 O.co2    1 ZINC000096014556   -1.1900
38     O38    -8.9658    0.3550    8.1193 O.co2    1 ZINC000096014556   -1.1700
39     O39    -8.4408    0.9530   10.5508 O.co2    1 ZINC000096014556   -1.1700
40     C40     0.6157   -0.4483   -1.2974 C.3      1 ZINC000096014556    0.1100
41     H41     1.6142   -0.0124   -1.2635 H        1 ZINC000096014556    0.1200
42     O42     0.7190   -1.8618   -1.4801 O.3      1 ZINC000096014556   -0.5400
43     C43    -0.1555    0.1515   -2.4448 C.2      1 ZINC000096014556    0.4900
44     O44    -0.7013   -0.5707   -3.2519 O.2      1 ZINC000096014556   -0.5200
45     N45    -0.2388    1.4905   -2.5740 N.am     1 ZINC000096014556   -0.7300
46     C46    -1.0675    2.0742   -3.6317 C.3      1 ZINC000096014556    0.1300
47     C47    -0.9878    3.6004   -3.5583 C.3      1 ZINC000096014556   -0.1500
48     C48    -1.8403    4.2008   -4.6463 C.2      1 ZINC000096014556    0.5200
49     O49    -2.4515    3.4791   -5.4056 O.2      1 ZINC000096014556   -0.5200
50     N50    -1.9236    5.5398   -4.7755 N.am     1 ZINC000096014556   -0.7300
51     C51    -2.7523    6.1235   -5.8332 C.3      1 ZINC000096014556    0.1300
52     C52    -2.6726    7.6497   -5.7598 C.3      1 ZINC000096014556   -0.1200
53     S53    -3.6965    8.3708   -7.0665 S.3      1 ZINC000096014556   -0.1200
54     C54    -3.4343   10.0356   -6.7650 C.2      1 ZINC000096014556    0.3300
55     O55    -2.7095   10.3805   -5.8552 O.2      1 ZINC000096014556   -0.4400
56     C56    -4.1038   11.0725   -7.6296 C.3      1 ZINC000096014556   -0.1100
57     C57    -3.7113   12.4490   -7.1582 C.ar     1 ZINC000096014556   -0.0700
58     C58    -4.4667   13.0913   -6.1951 C.ar     1 ZINC000096014556   -0.1000
59     C59    -4.1067   14.3540   -5.7627 C.ar     1 ZINC000096014556   -0.1200
60     C60    -2.9909   14.9741   -6.2931 C.ar     1 ZINC000096014556   -0.1200
61     C61    -2.2349   14.3315   -7.2556 C.ar     1 ZINC000096014556   -0.1200
62     C62    -2.5925   13.0670   -7.6849 C.ar     1 ZINC000096014556   -0.1100
63     H63     0.9273    1.7171    0.2410 H        1 ZINC000096014556    0.0500
64     H64    -0.6966    1.8597   -0.4738 H        1 ZINC000096014556    0.0600
65     H65    -0.5157    1.5492    1.2695 H        1 ZINC000096014556    0.0800
66     H66     0.0362   -0.7245    2.0879 H        1 ZINC000096014556    0.0800
67     H67     0.6331   -1.9505    0.9439 H        1 ZINC000096014556    0.0600
68     H68     1.6022   -0.4943    1.2737 H        1 ZINC000096014556    0.0500
69     H69    -2.0617   -0.1228   -0.9028 H        1 ZINC000096014556    0.0500
70     H70    -1.5712   -1.7147   -0.2755 H        1 ZINC000096014556    0.0500
71     H71    -7.3362    2.1185    4.7976 H        1 ZINC000096014556    0.0600
72     H72    -7.1569    0.7770    5.9537 H        1 ZINC000096014556    0.1000
73     H73    -6.4312    5.7695    4.3559 H        1 ZINC000096014556    0.2300
74     H74    -5.4912   10.5036    4.5864 H        1 ZINC000096014556    0.4200
75     H75    -4.8786   11.5629    5.7376 H        1 ZINC000096014556    0.4000
76     H76    -3.9887    9.0381    9.4294 H        1 ZINC000096014556    0.2000
77     H77    -6.5780    5.6946    9.3069 H        1 ZINC000096014556    0.3500
78     H78    -0.1335   -2.3166   -1.5195 H        1 ZINC000096014556    0.3900
79     H79     0.2500    2.0677   -1.9666 H        1 ZINC000096014556    0.4000
80     H80    -0.7064    1.7378   -4.6035 H        1 ZINC000096014556    0.0700
81     H81    -2.1021    1.7576   -3.4990 H        1 ZINC000096014556    0.0900
82     H82    -1.3490    3.9367   -2.5864 H        1 ZINC000096014556    0.1100
83     H83     0.0467    3.9170   -3.6909 H        1 ZINC000096014556    0.1000
84     H84    -1.4348    6.1170   -4.1681 H        1 ZINC000096014556    0.4000
85     H85    -2.3912    5.7871   -6.8050 H        1 ZINC000096014556    0.0800
86     H86    -3.7869    5.8069   -5.7005 H        1 ZINC000096014556    0.0800
87     H87    -3.0338    7.9860   -4.7879 H        1 ZINC000096014556    0.1100
88     H88    -1.6381    7.9663   -5.8924 H        1 ZINC000096014556    0.1000
89     H89    -3.7900   10.9398   -8.6650 H        1 ZINC000096014556    0.1100
90     H90    -5.1857   10.9596   -7.5605 H        1 ZINC000096014556    0.1200
91     H91    -5.3385   12.6068   -5.7807 H        1 ZINC000096014556    0.1200
92     H92    -4.6973   14.8561   -5.0108 H        1 ZINC000096014556    0.1200
93     H93    -2.7100   15.9609   -5.9558 H        1 ZINC000096014556    0.1200
94     H94    -1.3634   14.8161   -7.6703 H        1 ZINC000096014556    0.1200
95     H95    -2.0019   12.5649   -8.4368 H        1 ZINC000096014556    0.1200
@<TRIPOS>BOND
1     1     2     1
2     1     63    1
3     1     64    1
4     1     65    1
5     2     3     1
6     2     4     1
7     2     40    1
8     3     66    1
9     3     67    1
10    3     68    1
11    4     5     1
12    4     69    1
13    4     70    1
14    5     6     1
15    6     7     ar
16    6     8     ar
17    6     9     1
18    9     10    1
19    10    11    ar
20    10    12    ar
21    10    13    1
22    13    14    1
23    14    15    1
24    14    71    1
25    14    72    1
26    15    16    1
27    15    33    1
28    15    17    1
29    17    18    1
30    18    19    1
31    18    20    1
32    18    30    1
33    20    29    1
34    20    21    1
35    21    22    2
36    21    73    1
37    22    23    1
38    23    29    ar
39    23    24    ar
40    24    25    1
41    24    26    ar
42    25    74    1
43    25    75    1
44    26    27    ar
45    27    28    ar
46    27    76    1
47    28    29    ar
48    30    31    1
49    30    32    1
50    30    33    1
51    32    77    1
52    33    34    1
53    33    35    1
54    35    36    1
55    36    37    ar
56    36    38    ar
57    36    39    ar
58    40    41    1
59    40    42    1
60    40    43    1
61    42    78    1
62    43    44    2
63    43    45    am
64    45    46    1
65    45    79    1
66    46    47    1
67    46    80    1
68    46    81    1
69    47    48    1
70    47    82    1
71    47    83    1
72    48    49    2
73    48    50    am
74    50    51    1
75    50    84    1
76    51    52    1
77    51    85    1
78    51    86    1
79    52    53    1
80    52    87    1
81    52    88    1
82    53    54    1
83    54    55    2
84    54    56    1
85    56    57    1
86    56    89    1
87    56    90    1
88    57    62    ar
89    57    58    ar
90    58    59    ar
91    58    91    1
92    59    60    ar
93    59    92    1
94    60    61    ar
95    60    93    1
96    61    62    ar
97    61    94    1
98    62    95    1
@<TRIPOS>SUBSTRUCTURE
1   ZINC000096014556 1     RESIDUE    1   A     ZIN   1
@<TRIPOS>MOLECULE
ZINC000096095473
106   108   1     0     0
SMALL
USER_CHARGES
@<TRIPOS>ATOM
1      C1      4.2048  -30.6650    1.1677 C.3      1 ZINC000096095473   -0.1500
2      C2      3.9600  -29.1638    1.0026 C.3      1 ZINC000096095473   -0.1300
3      C3      4.4823  -28.4233    2.2354 C.3      1 ZINC000096095473   -0.1200
4      C4      4.2375  -26.9220    2.0703 C.3      1 ZINC000096095473   -0.1200
5      C5      4.7598  -26.1815    3.3031 C.3      1 ZINC000096095473   -0.1200
6      C6      4.5150  -24.6803    3.1380 C.3      1 ZINC000096095473   -0.1200
7      C7      5.0373  -23.9398    4.3708 C.3      1 ZINC000096095473   -0.1100
8      C8      4.7925  -22.4386    4.2057 C.3      1 ZINC000096095473   -0.1500
9      C9      5.3070  -21.7092    5.4199 C.2      1 ZINC000096095473    0.3300
10     O10     5.8192  -22.3293    6.3283 O.2      1 ZINC000096095473   -0.4500
11     S11     5.1687  -20.0056    5.5176 S.3      1 ZINC000096095473   -0.1200
12     C12     5.9291  -19.7207    7.1352 C.3      1 ZINC000096095473   -0.1200
13     C13     5.9181  -18.2229    7.4473 C.3      1 ZINC000096095473    0.1400
14     N14     6.5336  -17.9924    8.7566 N.am     1 ZINC000096095473   -0.7300
15     C15     6.6345  -16.7393    9.2425 C.2      1 ZINC000096095473    0.5200
16     O16     6.2157  -15.8026    8.5959 O.2      1 ZINC000096095473   -0.5300
17     C17     7.2676  -16.5021   10.5894 C.3      1 ZINC000096095473   -0.1500
18     C18     7.2566  -15.0043   10.9014 C.3      1 ZINC000096095473    0.1400
19     N19     7.8721  -14.7738   12.2107 N.am     1 ZINC000096095473   -0.7400
20     C20     7.9730  -13.5207   12.6966 C.2      1 ZINC000096095473    0.5000
21     O21     7.6401  -12.5763   12.0124 O.2      1 ZINC000096095473   -0.5300
22     C22     8.4995  -13.2931   14.0902 C.3      1 ZINC000096095473    0.1000
23     H23     9.2603  -12.5129   14.0682 H        1 ZINC000096095473    0.1400
24     O24     9.0733  -14.5041   14.5863 O.3      1 ZINC000096095473   -0.5500
25     C25     7.3517  -12.8606   15.0047 C.3      1 ZINC000096095473   -0.0900
26     C26     6.8346  -11.4906   14.5611 C.3      1 ZINC000096095473   -0.1400
27     C27     6.2186  -13.8852   14.9204 C.3      1 ZINC000096095473   -0.1400
28     C28     7.8541  -12.7733   16.4473 C.3      1 ZINC000096095473    0.1500
29     O29     6.7820  -12.3694   17.3014 O.3      1 ZINC000096095473   -0.7700
30     P30     6.9526  -12.1748   18.8905 P.3      1 ZINC000096095473    2.2900
31     O31     7.5178  -13.4721   19.5105 O.co2    1 ZINC000096095473   -1.1000
32     O32     7.9257  -11.0065   19.1647 O.co2    1 ZINC000096095473   -1.1100
33     O33     5.5202  -11.8457   19.5477 O.3      1 ZINC000096095473   -1.0900
34     P34     4.9542  -11.8474   21.0549 P.3      1 ZINC000096095473    2.2900
35     O35     5.5249  -13.0637   21.8179 O.co2    1 ZINC000096095473   -1.1000
36     O36     5.3827  -10.5452   21.7674 O.co2    1 ZINC000096095473   -1.1000
37     O37     3.3471  -11.9388   21.0247 O.3      1 ZINC000096095473   -0.7700
38     C38     2.5524  -12.0646   22.2056 C.3      1 ZINC000096095473    0.1400
39     C39     1.0728  -12.1246   21.8206 C.3      1 ZINC000096095473    0.0700
40     H40     0.8065  -11.2653   21.2052 H        1 ZINC000096095473    0.1000
41     O41     0.7853  -13.3538   21.1190 O.3      1 ZINC000096095473   -0.3500
42     C42    -0.6412  -13.5402   21.2468 C.3      1 ZINC000096095473    0.2600
43     H43    -1.1722  -12.8979   20.5442 H        1 ZINC000096095473    0.1200
44     N44    -0.9944  -14.9438   21.0205 N.pl3    1 ZINC000096095473   -0.4500
45     C45    -0.1704  -16.0184   21.1772 C.2      1 ZINC000096095473    0.2900
46     N46    -0.8101  -17.1148   20.8907 N.2      1 ZINC000096095473   -0.4800
47     C47    -2.0817  -16.8146   20.5329 C.ar     1 ZINC000096095473   -0.1000
48     C48    -3.1990  -17.5662   20.1314 C.ar     1 ZINC000096095473    0.5000
49     N49    -3.1275  -18.9450   20.0357 N.pl3    1 ZINC000096095473   -0.8300
50     N50    -4.3261  -16.9223   19.8461 N.ar     1 ZINC000096095473   -0.6000
51     C51    -4.4036  -15.6071   19.9350 C.ar     1 ZINC000096095473    0.3400
52     N52    -3.3833  -14.8626   20.3062 N.ar     1 ZINC000096095473   -0.5400
53     C53    -2.2171  -15.4184   20.6175 C.ar     1 ZINC000096095473    0.2900
54     C54    -0.9642  -13.1295   22.7006 C.3      1 ZINC000096095473    0.0600
55     H55    -0.9717  -14.0037   23.3516 H        1 ZINC000096095473    0.0700
56     O56    -2.2200  -12.4503   22.7618 O.3      1 ZINC000096095473   -0.5000
57     C57     0.1892  -12.1739   23.0867 C.3      1 ZINC000096095473    0.1500
58     H58     0.7527  -12.5760   23.9287 H        1 ZINC000096095473    0.0800
59     O59    -0.3198  -10.8760   23.4007 O.3      1 ZINC000096095473   -0.7200
60     P60    -0.0892  -10.1651   24.8267 P.3      1 ZINC000096095473    2.1200
61     O61    -0.5964  -11.1095   25.9691 O.co2    1 ZINC000096095473   -1.1900
62     O62     1.4379   -9.8777   25.0261 O.co2    1 ZINC000096095473   -1.1700
63     O63    -0.8848   -8.8162   24.8724 O.co2    1 ZINC000096095473   -1.1700
64     H64     3.6824  -31.0229    2.0549 H        1 ZINC000096095473    0.0500
65     H65     3.8327  -31.1926    0.2894 H        1 ZINC000096095473    0.0500
66     H66     5.2736  -30.8491    1.2763 H        1 ZINC000096095473    0.0500
67     H67     4.4823  -28.8059    0.1154 H        1 ZINC000096095473    0.0600
68     H68     2.8911  -28.9797    0.8940 H        1 ZINC000096095473    0.0600
69     H69     3.9599  -28.7812    3.1226 H        1 ZINC000096095473    0.0600
70     H70     5.5511  -28.6073    2.3440 H        1 ZINC000096095473    0.0600
71     H71     4.7598  -26.5641    1.1831 H        1 ZINC000096095473    0.0600
72     H72     3.1687  -26.7380    1.9617 H        1 ZINC000096095473    0.0600
73     H73     4.2375  -26.5394    4.1903 H        1 ZINC000096095473    0.0600
74     H74     5.8286  -26.3656    3.4117 H        1 ZINC000096095473    0.0600
75     H75     5.0374  -24.3224    2.2508 H        1 ZINC000096095473    0.0600
76     H76     3.4462  -24.4962    3.0294 H        1 ZINC000096095473    0.0600
77     H77     4.5150  -24.2977    5.2580 H        1 ZINC000096095473    0.0700
78     H78     6.1062  -24.1239    4.4794 H        1 ZINC000096095473    0.0700
79     H79     5.3149  -22.0807    3.3185 H        1 ZINC000096095473    0.1000
80     H80     3.7237  -22.2545    4.0970 H        1 ZINC000096095473    0.1100
81     H81     5.3664  -20.2554    7.9005 H        1 ZINC000096095473    0.1000
82     H82     6.9575  -20.0816    7.1219 H        1 ZINC000096095473    0.1000
83     H83     6.4809  -17.6882    6.6821 H        1 ZINC000096095473    0.0800
84     H84     4.8897  -17.8621    7.4607 H        1 ZINC000096095473    0.0800
85     H85     6.8685  -18.7415    9.2738 H        1 ZINC000096095473    0.4000
86     H86     6.7049  -17.0368   11.3546 H        1 ZINC000096095473    0.1100
87     H87     8.2960  -16.8630   10.5760 H        1 ZINC000096095473    0.1000
88     H88     7.8194  -14.4697   10.1362 H        1 ZINC000096095473    0.0700
89     H89     6.2282  -14.6435   10.9148 H        1 ZINC000096095473    0.0800
90     H90     8.2070  -15.5230   12.7279 H        1 ZINC000096095473    0.4000
91     H91     8.4519  -15.2435   14.6333 H        1 ZINC000096095473    0.3700
92     H92     6.4056  -11.5703   13.5622 H        1 ZINC000096095473    0.0600
93     H93     6.0704  -11.1475   15.2584 H        1 ZINC000096095473    0.0800
94     H94     7.6594  -10.7782   14.5465 H        1 ZINC000096095473    0.0500
95     H95     6.5869  -14.8611   15.2365 H        1 ZINC000096095473    0.0500
96     H96     5.4008  -13.5770   15.5719 H        1 ZINC000096095473    0.0800
97     H97     5.8607  -13.9473   13.8927 H        1 ZINC000096095473    0.0400
98     H98     8.2224  -13.7493   16.7633 H        1 ZINC000096095473    0.0600
99     H99     8.6613  -12.0434   16.5073 H        1 ZINC000096095473    0.0500
100    H100    2.8278  -12.9777   22.7333 H        1 ZINC000096095473    0.0600
101    H101    2.7248  -11.2048   22.8529 H        1 ZINC000096095473    0.1000
102    H102    0.8614  -15.9672   21.4921 H        1 ZINC000096095473    0.2300
103    H103   -2.2992  -19.4035   20.2470 H        1 ZINC000096095473    0.4200
104    H104   -3.9057  -19.4528   19.7574 H        1 ZINC000096095473    0.4000
105    H105   -5.3390  -15.1241   19.6938 H        1 ZINC000096095473    0.2000
106    H106   -2.9713  -12.9859   22.4724 H        1 ZINC000096095473    0.3500
@<TRIPOS>BOND
1     1     2     1
2     1     64    1
3     1     65    1
4     1     66    1
5     2     3     1
6     2     67    1
7     2     68    1
8     3     4     1
9     3     69    1
10    3     70    1
11    4     5     1
12    4     71    1
13    4     72    1
14    5     6     1
15    5     73    1
16    5     74    1
17    6     7     1
18    6     75    1
19    6     76    1
20    7     8     1
21    7     77    1
22    7     78    1
23    8     9     1
24    8     79    1
25    8     80    1
26    9     10    2
27    9     11    1
28    11    12    1
29    12    13    1
30    12    81    1
31    12    82    1
32    13    14    1
33    13    83    1
34    13    84    1
35    14    15    am
36    14    85    1
37    15    16    2
38    15    17    1
39    17    18    1
40    17    86    1
41    17    87    1
42    18    19    1
43    18    88    1
44    18    89    1
45    19    20    am
46    19    90    1
47    20    21    2
48    20    22    1
49    22    23    1
50    22    24    1
51    22    25    1
52    24    91    1
53    25    26    1
54    25    27    1
55    25    28    1
56    26    92    1
57    26    93    1
58    26    94    1
59    27    95    1
60    27    96    1
61    27    97    1
62    28    29    1
63    28    98    1
64    28    99    1
65    29    30    1
66    30    31    ar
67    30    32    ar
68    30    33    1
69    33    34    1
70    34    35    ar
71    34    36    ar
72    34    37    1
73    37    38    1
74    38    39    1
75    38    100   1
76    38    101   1
77    39    40    1
78    39    57    1
79    39    41    1
80    41    42    1
81    42    43    1
82    42    44    1
83    42    54    1
84    44    53    1
85    44    45    1
86    45    46    2
87    45    102   1
88    46    47    1
89    47    53    ar
90    47    48    ar
91    48    49    1
92    48    50    ar
93    49    103   1
94    49    104   1
95    50    51    ar
96    51    52    ar
97    51    105   1
98    52    53    ar
99    54    55    1
100   54    56    1
101   54    57    1
102   56    106   1
103   57    58    1
104   57    59    1
105   59    60    1
106   60    61    ar
107   60    62    ar
108   60    63    ar
@<TRIPOS>SUBSTRUCTURE
1   ZINC000096095473 1     RESIDUE    1   A     ZIN   1
@<TRIPOS>MOLECULE
ZINC000096014521
90    92    1     0     0
SMALL
USER_CHARGES
@<TRIPOS>ATOM
1      C1    -17.0529  -11.0568   -1.8328 C.3      1 ZINC000096014521   -0.2000
2      C2    -15.6400  -11.5578   -1.6787 C.2      1 ZINC000096014521    0.3500
3      O3    -15.4218  -12.7447   -1.6337 O.2      1 ZINC000096014521   -0.4200
4      C4    -14.4995  -10.5777   -1.5807 C.3      1 ZINC000096014521   -0.2000
5      C5    -13.2020  -11.3299   -1.4337 C.2      1 ZINC000096014521    0.3200
6      O6    -13.2033  -12.5430   -1.4107 O.2      1 ZINC000096014521   -0.4100
7      S7    -11.7261  -10.4728   -1.2990 S.3      1 ZINC000096014521   -0.1200
8      C8    -10.5702  -11.8581   -1.1544 C.3      1 ZINC000096014521   -0.1200
9      C9     -9.1442  -11.3204   -1.0188 C.3      1 ZINC000096014521    0.1400
10     N10    -8.2086  -12.4416   -0.9017 N.am     1 ZINC000096014521   -0.7300
11     C11    -6.8880  -12.2065   -0.7711 C.2      1 ZINC000096014521    0.5200
12     O12    -6.4741  -11.0666   -0.7505 O.2      1 ZINC000096014521   -0.5300
13     C13    -5.9255  -13.3598   -0.6507 C.3      1 ZINC000096014521   -0.1500
14     C14    -4.4996  -12.8222   -0.5151 C.3      1 ZINC000096014521    0.1400
15     N15    -3.5639  -13.9434   -0.3980 N.am     1 ZINC000096014521   -0.7400
16     C16    -2.2433  -13.7082   -0.2674 C.2      1 ZINC000096014521    0.5000
17     O17    -1.8192  -12.5743   -0.3401 O.2      1 ZINC000096014521   -0.5300
18     C18    -1.2936  -14.8543   -0.0312 C.3      1 ZINC000096014521    0.1000
19     H19    -0.4498  -14.7741   -0.7165 H        1 ZINC000096014521    0.1400
20     O20    -1.9739  -16.0907   -0.2558 O.3      1 ZINC000096014521   -0.5500
21     C21    -0.7856  -14.8065    1.4112 C.3      1 ZINC000096014521   -0.0900
22     C22     0.0686  -13.5528    1.6098 C.3      1 ZINC000096014521   -0.1400
23     C23    -1.9768  -14.7692    2.3706 C.3      1 ZINC000096014521   -0.1400
24     C24     0.0596  -16.0497    1.6957 C.3      1 ZINC000096014521    0.1500
25     O25     0.5342  -16.0051    3.0428 O.3      1 ZINC000096014521   -0.7700
26     P26     1.4579  -17.1564    3.6857 P.3      1 ZINC000096014521    2.2900
27     O27     0.7571  -18.5247    3.5321 O.co2    1 ZINC000096014521   -1.1000
28     O28     2.8199  -17.1907    2.9570 O.co2    1 ZINC000096014521   -1.1100
29     O29     1.6929  -16.8461    5.2479 O.3      1 ZINC000096014521   -1.0900
30     P30     2.2341  -17.7137    6.4915 P.3      1 ZINC000096014521    2.2900
31     O31     1.6687  -19.1488    6.4031 O.co2    1 ZINC000096014521   -1.1000
32     O32     3.7777  -17.7649    6.4507 O.co2    1 ZINC000096014521   -1.1000
33     O33     1.7559  -17.0325    7.8697 O.3      1 ZINC000096014521   -0.7700
34     C34     1.9885  -17.6215    9.1507 C.3      1 ZINC000096014521    0.1400
35     C35     1.4083  -16.7178   10.2405 C.3      1 ZINC000096014521    0.0700
36     H36     1.8063  -15.7074   10.1463 H        1 ZINC000096014521    0.1000
37     O37    -0.0338  -16.6993   10.1632 O.3      1 ZINC000096014521   -0.3500
38     C38    -0.4791  -16.2628   11.4659 C.3      1 ZINC000096014521    0.2600
39     H39    -0.3707  -15.1824   11.5616 H        1 ZINC000096014521    0.1200
40     N40    -1.8730  -16.6560   11.6866 N.pl3    1 ZINC000096014521   -0.4500
41     C41    -2.5286  -17.6816   11.0729 C.2      1 ZINC000096014521    0.2900
42     N42    -3.7542  -17.7480   11.5054 N.2      1 ZINC000096014521   -0.4800
43     C43    -3.9625  -16.7720   12.4216 C.ar     1 ZINC000096014521   -0.1000
44     C44    -5.0580  -16.3679   13.2032 C.ar     1 ZINC000096014521    0.5000
45     N45    -6.2696  -17.0315   13.1210 N.pl3    1 ZINC000096014521   -0.8300
46     N46    -4.9034  -15.3337   14.0236 N.ar     1 ZINC000096014521   -0.6000
47     C47    -3.7509  -14.6949   14.1089 C.ar     1 ZINC000096014521    0.3400
48     N48    -2.6985  -15.0376   13.3962 N.ar     1 ZINC000096014521   -0.5400
49     C49    -2.7562  -16.0633   12.5532 C.ar     1 ZINC000096014521    0.3000
50     C50     0.4510  -16.9872   12.4641 C.3      1 ZINC000096014521    0.0600
51     H51    -0.0094  -17.9113   12.8136 H        1 ZINC000096014521    0.0700
52     O52     0.7611  -16.1349   13.5685 O.3      1 ZINC000096014521   -0.5000
53     C53     1.7238  -17.2918   11.6395 C.3      1 ZINC000096014521    0.1500
54     H54     1.8924  -18.3671   11.5805 H        1 ZINC000096014521    0.0800
55     O55     2.8590  -16.6389   12.2113 O.3      1 ZINC000096014521   -0.7200
56     P56     4.1679  -17.4326   12.7104 P.3      1 ZINC000096014521    2.1200
57     O57     3.7483  -18.5368   13.7395 O.co2    1 ZINC000096014521   -1.1900
58     O58     4.8716  -18.1039   11.4821 O.co2    1 ZINC000096014521   -1.1700
59     O59     5.1574  -16.4294   13.3951 O.co2    1 ZINC000096014521   -1.1700
60     H60   -17.7354  -11.9050   -1.8864 H        1 ZINC000096014521    0.0800
61     H61   -17.3132  -10.4346   -0.9764 H        1 ZINC000096014521    0.0900
62     H62   -17.1321  -10.4684   -2.7469 H        1 ZINC000096014521    0.0900
63     H63   -14.4657   -9.9681   -2.4837 H        1 ZINC000096014521    0.1400
64     H64   -14.6468   -9.9343   -0.7133 H        1 ZINC000096014521    0.1400
65     H65   -10.8206  -12.4498   -0.2740 H        1 ZINC000096014521    0.1100
66     H66   -10.6395  -12.4836   -2.0444 H        1 ZINC000096014521    0.1000
67     H67    -8.8938  -10.7286   -1.8993 H        1 ZINC000096014521    0.0800
68     H68    -9.0749  -10.6949   -0.1288 H        1 ZINC000096014521    0.0800
69     H69    -8.5396  -13.3532   -0.9182 H        1 ZINC000096014521    0.4000
70     H70    -6.1760  -13.9516    0.2297 H        1 ZINC000096014521    0.1100
71     H71    -5.9949  -13.9854   -1.5407 H        1 ZINC000096014521    0.1000
72     H72    -4.2491  -12.2304   -1.3956 H        1 ZINC000096014521    0.0700
73     H73    -4.4302  -12.1966    0.3748 H        1 ZINC000096014521    0.0800
74     H74    -3.8950  -14.8550   -0.4145 H        1 ZINC000096014521    0.4000
75     H75    -2.7379  -16.2297    0.3205 H        1 ZINC000096014521    0.3700
76     H76    -0.5526  -12.6661    1.4834 H        1 ZINC000096014521    0.0600
77     H77     0.4942  -13.5582    2.6133 H        1 ZINC000096014521    0.0800
78     H78     0.8728  -13.5408    0.8741 H        1 ZINC000096014521    0.0500
79     H79    -2.5854  -15.6624    2.2291 H        1 ZINC000096014521    0.0500
80     H80    -1.6149  -14.7352    3.3982 H        1 ZINC000096014521    0.0800
81     H81    -2.5789  -13.8835    2.1680 H        1 ZINC000096014521    0.0400
82     H82    -0.5489  -16.9429    1.5542 H        1 ZINC000096014521    0.0600
83     H83     0.9083  -16.0763    1.0122 H        1 ZINC000096014521    0.0500
84     H84     1.5070  -18.5984    9.1943 H        1 ZINC000096014521    0.0600
85     H85     3.0609  -17.7376    9.3079 H        1 ZINC000096014521    0.1000
86     H86    -2.0950  -18.3414   10.3359 H        1 ZINC000096014521    0.2300
87     H87    -6.3699  -17.7851   12.5186 H        1 ZINC000096014521    0.4200
88     H88    -7.0185  -16.7430   13.6657 H        1 ZINC000096014521    0.4000
89     H89    -3.6687  -13.8596   14.7886 H        1 ZINC000096014521    0.2000
90     H90    -0.0102  -15.8642   14.0850 H        1 ZINC000096014521    0.3500
@<TRIPOS>BOND
1     1     2     1
2     1     60    1
3     1     61    1
4     1     62    1
5     2     3     2
6     2     4     1
7     4     5     1
8     4     63    1
9     4     64    1
10    5     6     2
11    5     7     1
12    7     8     1
13    8     9     1
14    8     65    1
15    8     66    1
16    9     10    1
17    9     67    1
18    9     68    1
19    10    11    am
20    10    69    1
21    11    12    2
22    11    13    1
23    13    14    1
24    13    70    1
25    13    71    1
26    14    15    1
27    14    72    1
28    14    73    1
29    15    16    am
30    15    74    1
31    16    17    2
32    16    18    1
33    18    19    1
34    18    20    1
35    18    21    1
36    20    75    1
37    21    22    1
38    21    23    1
39    21    24    1
40    22    76    1
41    22    77    1
42    22    78    1
43    23    79    1
44    23    80    1
45    23    81    1
46    24    25    1
47    24    82    1
48    24    83    1
49    25    26    1
50    26    27    ar
51    26    28    ar
52    26    29    1
53    29    30    1
54    30    31    ar
55    30    32    ar
56    30    33    1
57    33    34    1
58    34    35    1
59    34    84    1
60    34    85    1
61    35    36    1
62    35    53    1
63    35    37    1
64    37    38    1
65    38    39    1
66    38    40    1
67    38    50    1
68    40    49    1
69    40    41    1
70    41    42    2
71    41    86    1
72    42    43    1
73    43    49    ar
74    43    44    ar
75    44    45    1
76    44    46    ar
77    45    87    1
78    45    88    1
79    46    47    ar
80    47    48    ar
81    47    89    1
82    48    49    ar
83    50    51    1
84    50    52    1
85    50    53    1
86    52    90    1
87    53    54    1
88    53    55    1
89    55    56    1
90    56    57    ar
91    56    58    ar
92    56    59    ar
@<TRIPOS>SUBSTRUCTURE
1   ZINC000096014521 1     RESIDUE    1   A     ZIN   1
@<TRIPOS>MOLECULE
ZINC000230026395
93    96    1     0     0
SMALL
USER_CHARGES
@<TRIPOS>ATOM
1      C1     -0.0985    1.3509    0.2822 C.3      1 ZINC000230026395   -0.1500
2      C2     -0.1133   -0.1556    0.0155 C.3      1 ZINC000230026395   -0.1000
3      C3      0.5901   -0.8836    1.1627 C.3      1 ZINC000230026395   -0.1300
4      C4     -1.5606   -0.6414   -0.0855 C.3      1 ZINC000230026395    0.1400
5      O5     -2.2415   -0.3681    1.1407 O.3      1 ZINC000230026395   -0.7600
6      P6     -3.7866   -0.7464    1.3890 P.3      1 ZINC000230026395    2.2900
7      O7     -3.9980   -2.2527    1.1177 O.co2    1 ZINC000230026395   -1.1000
8      O8     -4.6786    0.0789    0.4349 O.co2    1 ZINC000230026395   -1.1100
9      O9     -4.1819   -0.4152    2.9141 O.3      1 ZINC000230026395   -1.0900
10     P10    -5.3629   -0.9016    3.8943 P.3      1 ZINC000230026395    2.2900
11     O11    -5.5297   -2.4332    3.7792 O.co2    1 ZINC000230026395   -1.0900
12     O12    -6.6839   -0.2081    3.4927 O.co2    1 ZINC000230026395   -1.1100
13     O13    -4.9937   -0.5145    5.4128 O.3      1 ZINC000230026395   -0.7700
14     C14    -5.7932   -0.9035    6.5315 C.3      1 ZINC000230026395    0.1400
15     C15    -5.1600   -0.3738    7.8197 C.3      1 ZINC000230026395    0.0700
16     H16    -4.1216   -0.6974    7.8922 H        1 ZINC000230026395    0.1000
17     O17    -5.2418    1.0674    7.8644 O.3      1 ZINC000230026395   -0.3500
18     C18    -5.0952    1.4137    9.2588 C.3      1 ZINC000230026395    0.2600
19     H19    -4.0471    1.3643    9.5540 H        1 ZINC000230026395    0.1100
20     N20    -5.6323    2.7532    9.5108 N.pl3    1 ZINC000230026395   -0.4500
21     C21    -6.5726    3.3988    8.7642 C.2      1 ZINC000230026395    0.3000
22     N22    -6.8163    4.5715    9.2733 N.2      1 ZINC000230026395   -0.4900
23     C23    -6.0501    4.7525   10.3758 C.ar     1 ZINC000230026395   -0.1000
24     C24    -5.8887    5.7921   11.3071 C.ar     1 ZINC000230026395    0.5000
25     N25    -6.6189    6.9624   11.1956 N.pl3    1 ZINC000230026395   -0.8300
26     N26    -5.0187    5.6253   12.2979 N.ar     1 ZINC000230026395   -0.6000
27     C27    -4.3180    4.5120   12.4125 C.ar     1 ZINC000230026395    0.3400
28     N28    -4.4357    3.5124   11.5639 N.ar     1 ZINC000230026395   -0.5400
29     C29    -5.2855    3.5857   10.5448 C.ar     1 ZINC000230026395    0.2900
30     C30    -5.9186    0.3500   10.0184 C.3      1 ZINC000230026395    0.0600
31     H31    -5.4210    0.0740   10.9481 H        1 ZINC000230026395    0.0900
32     O32    -7.2377    0.8321   10.2820 O.3      1 ZINC000230026395   -0.5300
33     C33    -5.9604   -0.8555    9.0500 C.3      1 ZINC000230026395    0.1500
34     H34    -6.9885   -1.0844    8.7693 H        1 ZINC000230026395    0.0900
35     O35    -5.3390   -1.9969    9.6442 O.3      1 ZINC000230026395   -0.7400
36     P36    -6.1061   -3.3940    9.8716 P.3      1 ZINC000230026395    2.1100
37     O37    -7.4141   -3.1433   10.6966 O.co2    1 ZINC000230026395   -1.1800
38     O38    -6.4759   -4.0187    8.4833 O.co2    1 ZINC000230026395   -1.1700
39     O39    -5.1746   -4.3795   10.6562 O.co2    1 ZINC000230026395   -1.1700
40     C40     0.6157   -0.4483   -1.2974 C.3      1 ZINC000230026395    0.1100
41     H41     1.6142   -0.0124   -1.2635 H        1 ZINC000230026395    0.1200
42     O42     0.7190   -1.8618   -1.4801 O.3      1 ZINC000230026395   -0.5400
43     C43    -0.1555    0.1515   -2.4448 C.2      1 ZINC000230026395    0.4900
44     O44    -0.7013   -0.5707   -3.2519 O.2      1 ZINC000230026395   -0.5200
45     N45    -0.2388    1.4905   -2.5740 N.am     1 ZINC000230026395   -0.7300
46     C46    -1.0675    2.0742   -3.6317 C.3      1 ZINC000230026395    0.1300
47     C47    -0.9878    3.6004   -3.5583 C.3      1 ZINC000230026395   -0.1500
48     C48    -1.8403    4.2008   -4.6463 C.2      1 ZINC000230026395    0.5200
49     O49    -2.4515    3.4791   -5.4056 O.2      1 ZINC000230026395   -0.5200
50     N50    -1.9236    5.5398   -4.7755 N.am     1 ZINC000230026395   -0.7300
51     C51    -2.7523    6.1235   -5.8332 C.3      1 ZINC000230026395    0.1300
52     C52    -2.6726    7.6497   -5.7598 C.3      1 ZINC000230026395   -0.1200
53     S53    -3.6965    8.3708   -7.0665 S.3      1 ZINC000230026395   -0.1300
54     C54    -3.4266   10.0842   -6.7562 C.2      1 ZINC000230026395    0.3900
55     O55    -2.7000   10.4300   -5.8441 O.2      1 ZINC000230026395   -0.4400
56     C56    -4.0824   11.0998   -7.6030 C.ar     1 ZINC000230026395   -0.1600
57     C57    -4.9221   10.7047   -8.6476 C.ar     1 ZINC000230026395   -0.0500
58     C58    -5.5324   11.6553   -9.4351 C.ar     1 ZINC000230026395   -0.1500
59     C59    -5.3141   13.0062   -9.1920 C.ar     1 ZINC000230026395    0.1400
60     O60    -5.9174   13.9401   -9.9704 O.3      1 ZINC000230026395   -0.5000
61     C61    -4.4799   13.4034   -8.1536 C.ar     1 ZINC000230026395   -0.1600
62     C62    -3.8697   12.4590   -7.3586 C.ar     1 ZINC000230026395   -0.0400
63     H63     0.9273    1.7171    0.2410 H        1 ZINC000230026395    0.0500
64     H64    -0.6966    1.8597   -0.4738 H        1 ZINC000230026395    0.0600
65     H65    -0.5157    1.5492    1.2695 H        1 ZINC000230026395    0.0800
66     H66     0.0362   -0.7245    2.0879 H        1 ZINC000230026395    0.0800
67     H67     0.6331   -1.9505    0.9439 H        1 ZINC000230026395    0.0600
68     H68     1.6022   -0.4943    1.2737 H        1 ZINC000230026395    0.0500
69     H69    -2.0617   -0.1228   -0.9028 H        1 ZINC000230026395    0.0400
70     H70    -1.5712   -1.7147   -0.2755 H        1 ZINC000230026395    0.0500
71     H71    -6.7959   -0.4901    6.4229 H        1 ZINC000230026395    0.0600
72     H72    -5.8514   -1.9911    6.5758 H        1 ZINC000230026395    0.1000
73     H73    -7.0452    2.9967    7.8803 H        1 ZINC000230026395    0.2300
74     H74    -7.2511    7.0721   10.4681 H        1 ZINC000230026395    0.4200
75     H75    -6.4986    7.6729   11.8449 H        1 ZINC000230026395    0.4000
76     H76    -3.6219    4.4181   13.2329 H        1 ZINC000230026395    0.2000
77     H77    -7.2637    1.6230   10.8377 H        1 ZINC000230026395    0.3500
78     H78    -0.1335   -2.3166   -1.5195 H        1 ZINC000230026395    0.3900
79     H79     0.2500    2.0677   -1.9666 H        1 ZINC000230026395    0.4000
80     H80    -0.7064    1.7378   -4.6035 H        1 ZINC000230026395    0.0700
81     H81    -2.1021    1.7576   -3.4990 H        1 ZINC000230026395    0.0800
82     H82    -1.3490    3.9367   -2.5864 H        1 ZINC000230026395    0.1100
83     H83     0.0467    3.9170   -3.6909 H        1 ZINC000230026395    0.1000
84     H84    -1.4348    6.1170   -4.1681 H        1 ZINC000230026395    0.4000
85     H85    -2.3912    5.7871   -6.8050 H        1 ZINC000230026395    0.0800
86     H86    -3.7869    5.8069   -5.7005 H        1 ZINC000230026395    0.0800
87     H87    -3.0338    7.9860   -4.7879 H        1 ZINC000230026395    0.1100
88     H88    -1.6381    7.9663   -5.8924 H        1 ZINC000230026395    0.1000
89     H89    -5.0919    9.6551   -8.8374 H        1 ZINC000230026395    0.1400
90     H90    -6.1813   11.3507  -10.2429 H        1 ZINC000230026395    0.1400
91     H91    -6.7830   14.2233   -9.6454 H        1 ZINC000230026395    0.4000
92     H92    -4.3127   14.4541   -7.9679 H        1 ZINC000230026395    0.1400
93     H93    -3.2219   12.7683   -6.5517 H        1 ZINC000230026395    0.1400
@<TRIPOS>BOND
1     1     2     1
2     1     63    1
3     1     64    1
4     1     65    1
5     2     3     1
6     2     4     1
7     2     40    1
8     3     66    1
9     3     67    1
10    3     68    1
11    4     5     1
12    4     69    1
13    4     70    1
14    5     6     1
15    6     7     ar
16    6     8     ar
17    6     9     1
18    9     10    1
19    10    11    ar
20    10    12    ar
21    10    13    1
22    13    14    1
23    14    15    1
24    14    71    1
25    14    72    1
26    15    16    1
27    15    33    1
28    15    17    1
29    17    18    1
30    18    19    1
31    18    20    1
32    18    30    1
33    20    29    1
34    20    21    1
35    21    22    2
36    21    73    1
37    22    23    1
38    23    29    ar
39    23    24    ar
40    24    25    1
41    24    26    ar
42    25    74    1
43    25    75    1
44    26    27    ar
45    27    28    ar
46    27    76    1
47    28    29    ar
48    30    31    1
49    30    32    1
50    30    33    1
51    32    77    1
52    33    34    1
53    33    35    1
54    35    36    1
55    36    37    ar
56    36    38    ar
57    36    39    ar
58    40    41    1
59    40    42    1
60    40    43    1
61    42    78    1
62    43    44    2
63    43    45    am
64    45    46    1
65    45    79    1
66    46    47    1
67    46    80    1
68    46    81    1
69    47    48    1
70    47    82    1
71    47    83    1
72    48    49    2
73    48    50    am
74    50    51    1
75    50    84    1
76    51    52    1
77    51    85    1
78    51    86    1
79    52    53    1
80    52    87    1
81    52    88    1
82    53    54    1
83    54    55    2
84    54    56    1
85    56    62    ar
86    56    57    ar
87    57    58    ar
88    57    89    1
89    58    59    ar
90    58    90    1
91    59    60    1
92    59    61    ar
93    60    91    1
94    61    62    ar
95    61    92    1
96    62    93    1
@<TRIPOS>SUBSTRUCTURE
1   ZINC000230026395 1     RESIDUE    1   A     ZIN   1

@<TRIPOS>MOLECULE
ZINC000230026395
92    95    1     0     0
SMALL
USER_CHARGES
@<TRIPOS>ATOM
1      C1     -0.0985    1.3509    0.2822 C.3      1 ZINC000230026395   -0.1500
2      C2     -0.1133   -0.1556    0.0155 C.3      1 ZINC000230026395   -0.1000
3      C3      0.5901   -0.8836    1.1627 C.3      1 ZINC000230026395   -0.1300
4      C4     -1.5606   -0.6414   -0.0855 C.3      1 ZINC000230026395    0.1400
5      O5     -2.2415   -0.3681    1.1407 O.3      1 ZINC000230026395   -0.7600
6      P6     -3.7866   -0.7464    1.3890 P.3      1 ZINC000230026395    2.2900
7      O7     -3.9980   -2.2527    1.1177 O.co2    1 ZINC000230026395   -1.1000
8      O8     -4.6786    0.0789    0.4349 O.co2    1 ZINC000230026395   -1.1100
9      O9     -4.1819   -0.4152    2.9141 O.3      1 ZINC000230026395   -1.0900
10     P10    -5.3629   -0.9016    3.8943 P.3      1 ZINC000230026395    2.2900
11     O11    -5.5297   -2.4332    3.7792 O.co2    1 ZINC000230026395   -1.0900
12     O12    -6.6839   -0.2081    3.4927 O.co2    1 ZINC000230026395   -1.1100
13     O13    -4.9937   -0.5145    5.4128 O.3      1 ZINC000230026395   -0.7700
14     C14    -5.7932   -0.9035    6.5315 C.3      1 ZINC000230026395    0.1400
15     C15    -5.1600   -0.3738    7.8197 C.3      1 ZINC000230026395    0.0700
16     H16    -4.1216   -0.6974    7.8922 H        1 ZINC000230026395    0.1000
17     O17    -5.2418    1.0674    7.8644 O.3      1 ZINC000230026395   -0.3500
18     C18    -5.0952    1.4137    9.2588 C.3      1 ZINC000230026395    0.2600
19     H19    -4.0471    1.3643    9.5540 H        1 ZINC000230026395    0.1100
20     N20    -5.6323    2.7532    9.5108 N.pl3    1 ZINC000230026395   -0.4500
21     C21    -6.5726    3.3988    8.7642 C.2      1 ZINC000230026395    0.3000
22     N22    -6.8163    4.5715    9.2733 N.2      1 ZINC000230026395   -0.4800
23     C23    -6.0501    4.7525   10.3758 C.ar     1 ZINC000230026395   -0.1000
24     C24    -5.8887    5.7921   11.3071 C.ar     1 ZINC000230026395    0.5000
25     N25    -6.6189    6.9624   11.1956 N.pl3    1 ZINC000230026395   -0.8300
26     N26    -5.0187    5.6253   12.2979 N.ar     1 ZINC000230026395   -0.6000
27     C27    -4.3180    4.5120   12.4125 C.ar     1 ZINC000230026395    0.3400
28     N28    -4.4357    3.5124   11.5639 N.ar     1 ZINC000230026395   -0.5400
29     C29    -5.2855    3.5857   10.5448 C.ar     1 ZINC000230026395    0.2900
30     C30    -5.9186    0.3500   10.0184 C.3      1 ZINC000230026395    0.0600
31     H31    -5.4210    0.0740   10.9481 H        1 ZINC000230026395    0.0900
32     O32    -7.2377    0.8321   10.2820 O.3      1 ZINC000230026395   -0.5300
33     C33    -5.9604   -0.8555    9.0500 C.3      1 ZINC000230026395    0.1500
34     H34    -6.9885   -1.0844    8.7693 H        1 ZINC000230026395    0.0900
35     O35    -5.3390   -1.9969    9.6442 O.3      1 ZINC000230026395   -0.7400
36     P36    -6.1061   -3.3940    9.8716 P.3      1 ZINC000230026395    2.1100
37     O37    -7.4141   -3.1433   10.6966 O.co2    1 ZINC000230026395   -1.1800
38     O38    -6.4759   -4.0187    8.4833 O.co2    1 ZINC000230026395   -1.1700
39     O39    -5.1746   -4.3795   10.6562 O.co2    1 ZINC000230026395   -1.1700
40     C40     0.6157   -0.4483   -1.2974 C.3      1 ZINC000230026395    0.1100
41     H41     1.6142   -0.0124   -1.2635 H        1 ZINC000230026395    0.1200
42     O42     0.7190   -1.8618   -1.4801 O.3      1 ZINC000230026395   -0.5400
43     C43    -0.1555    0.1515   -2.4448 C.2      1 ZINC000230026395    0.4900
44     O44    -0.7013   -0.5707   -3.2519 O.2      1 ZINC000230026395   -0.5300
45     N45    -0.2388    1.4905   -2.5740 N.am     1 ZINC000230026395   -0.7300
46     C46    -1.0675    2.0742   -3.6317 C.3      1 ZINC000230026395    0.1300
47     C47    -0.9878    3.6004   -3.5583 C.3      1 ZINC000230026395   -0.1500
48     C48    -1.8403    4.2008   -4.6463 C.2      1 ZINC000230026395    0.5200
49     O49    -2.4515    3.4791   -5.4056 O.2      1 ZINC000230026395   -0.5300
50     N50    -1.9236    5.5398   -4.7755 N.am     1 ZINC000230026395   -0.7300
51     C51    -2.7523    6.1235   -5.8332 C.3      1 ZINC000230026395    0.1400
52     C52    -2.6726    7.6497   -5.7598 C.3      1 ZINC000230026395   -0.1100
53     S53    -3.6965    8.3708   -7.0665 S.3      1 ZINC000230026395   -0.1900
54     C54    -3.4266   10.0842   -6.7562 C.2      1 ZINC000230026395    0.4200
55     O55    -2.7000   10.4300   -5.8441 O.2      1 ZINC000230026395   -0.4900
56     C56    -4.0824   11.0998   -7.6030 C.ar     1 ZINC000230026395   -0.3000
57     C57    -4.9221   10.7047   -8.6476 C.ar     1 ZINC000230026395   -0.0100
58     C58    -5.5324   11.6553   -9.4351 C.ar     1 ZINC000230026395   -0.2700
59     C59    -5.3141   13.0062   -9.1920 C.ar     1 ZINC000230026395    0.3000
60     O60    -5.9174   13.9401   -9.9704 O.3      1 ZINC000230026395   -0.7200
61     C61    -4.4799   13.4034   -8.1536 C.ar     1 ZINC000230026395   -0.2800
62     C62    -3.8697   12.4590   -7.3586 C.ar     1 ZINC000230026395    0.0000
63     H63     0.9273    1.7171    0.2410 H        1 ZINC000230026395    0.0500
64     H64    -0.6966    1.8597   -0.4738 H        1 ZINC000230026395    0.0600
65     H65    -0.5157    1.5492    1.2695 H        1 ZINC000230026395    0.0800
66     H66     0.0362   -0.7245    2.0879 H        1 ZINC000230026395    0.0800
67     H67     0.6331   -1.9505    0.9439 H        1 ZINC000230026395    0.0600
68     H68     1.6022   -0.4943    1.2737 H        1 ZINC000230026395    0.0500
69     H69    -2.0617   -0.1228   -0.9028 H        1 ZINC000230026395    0.0500
70     H70    -1.5712   -1.7147   -0.2755 H        1 ZINC000230026395    0.0500
71     H71    -6.7959   -0.4901    6.4229 H        1 ZINC000230026395    0.0600
72     H72    -5.8514   -1.9911    6.5758 H        1 ZINC000230026395    0.1000
73     H73    -7.0452    2.9967    7.8803 H        1 ZINC000230026395    0.2300
74     H74    -7.2511    7.0721   10.4681 H        1 ZINC000230026395    0.4200
75     H75    -6.4986    7.6729   11.8449 H        1 ZINC000230026395    0.4000
76     H76    -3.6219    4.4181   13.2329 H        1 ZINC000230026395    0.2000
77     H77    -7.2637    1.6230   10.8377 H        1 ZINC000230026395    0.3500
78     H78    -0.1335   -2.3166   -1.5195 H        1 ZINC000230026395    0.3900
79     H79     0.2500    2.0677   -1.9666 H        1 ZINC000230026395    0.4000
80     H80    -0.7064    1.7378   -4.6035 H        1 ZINC000230026395    0.0700
81     H81    -2.1021    1.7576   -3.4990 H        1 ZINC000230026395    0.0800
82     H82    -1.3490    3.9367   -2.5864 H        1 ZINC000230026395    0.1100
83     H83     0.0467    3.9170   -3.6909 H        1 ZINC000230026395    0.1000
84     H84    -1.4348    6.1170   -4.1681 H        1 ZINC000230026395    0.4000
85     H85    -2.3912    5.7871   -6.8050 H        1 ZINC000230026395    0.0800
86     H86    -3.7869    5.8069   -5.7005 H        1 ZINC000230026395    0.0800
87     H87    -3.0338    7.9860   -4.7879 H        1 ZINC000230026395    0.1000
88     H88    -1.6381    7.9663   -5.8924 H        1 ZINC000230026395    0.0900
89     H89    -5.0919    9.6551   -8.8374 H        1 ZINC000230026395    0.1100
90     H90    -6.1813   11.3507  -10.2429 H        1 ZINC000230026395    0.1000
91     H91    -4.3127   14.4541   -7.9679 H        1 ZINC000230026395    0.1000
92     H92    -3.2219   12.7683   -6.5517 H        1 ZINC000230026395    0.1100
@<TRIPOS>BOND
1     1     2     1
2     1     63    1
3     1     64    1
4     1     65    1
5     2     3     1
6     2     4     1
7     2     40    1
8     3     66    1
9     3     67    1
10    3     68    1
11    4     5     1
12    4     69    1
13    4     70    1
14    5     6     1
15    6     7     ar
16    6     8     ar
17    6     9     1
18    9     10    1
19    10    11    ar
20    10    12    ar
21    10    13    1
22    13    14    1
23    14    15    1
24    14    71    1
25    14    72    1
26    15    16    1
27    15    33    1
28    15    17    1
29    17    18    1
30    18    19    1
31    18    20    1
32    18    30    1
33    20    29    1
34    20    21    1
35    21    22    2
36    21    73    1
37    22    23    1
38    23    29    ar
39    23    24    ar
40    24    25    1
41    24    26    ar
42    25    74    1
43    25    75    1
44    26    27    ar
45    27    28    ar
46    27    76    1
47    28    29    ar
48    30    31    1
49    30    32    1
50    30    33    1
51    32    77    1
52    33    34    1
53    33    35    1
54    35    36    1
55    36    37    ar
56    36    38    ar
57    36    39    ar
58    40    41    1
59    40    42    1
60    40    43    1
61    42    78    1
62    43    44    2
63    43    45    am
64    45    46    1
65    45    79    1
66    46    47    1
67    46    80    1
68    46    81    1
69    47    48    1
70    47    82    1
71    47    83    1
72    48    49    2
73    48    50    am
74    50    51    1
75    50    84    1
76    51    52    1
77    51    85    1
78    51    86    1
79    52    53    1
80    52    87    1
81    52    88    1
82    53    54    1
83    54    55    2
84    54    56    1
85    56    62    ar
86    56    57    ar
87    57    58    ar
88    57    89    1
89    58    59    ar
90    58    90    1
91    59    60    1
92    59    61    ar
93    61    62    ar
94    61    91    1
95    62    92    1
@<TRIPOS>SUBSTRUCTURE
1   ZINC000230026395 1     RESIDUE    1   A     ZIN   1
@<TRIPOS>MOLECULE
ZINC000230034399
100   102   1     0     0
SMALL
USER_CHARGES
@<TRIPOS>ATOM
1      C1     -0.0985    1.3509    0.2822 C.3      1 ZINC000230034399   -0.1500
2      C2     -0.1133   -0.1556    0.0155 C.3      1 ZINC000230034399   -0.1000
3      C3      0.5901   -0.8836    1.1627 C.3      1 ZINC000230034399   -0.1300
4      C4     -1.5606   -0.6414   -0.0855 C.3      1 ZINC000230034399    0.1400
5      O5     -2.2415   -0.3681    1.1407 O.3      1 ZINC000230034399   -0.7600
6      P6     -3.7866   -0.7464    1.3890 P.3      1 ZINC000230034399    2.2900
7      O7     -3.9980   -2.2527    1.1177 O.co2    1 ZINC000230034399   -1.1000
8      O8     -4.6786    0.0789    0.4349 O.co2    1 ZINC000230034399   -1.1100
9      O9     -4.1819   -0.4152    2.9141 O.3      1 ZINC000230034399   -1.0900
10     P10    -5.3629   -0.9016    3.8943 P.3      1 ZINC000230034399    2.2900
11     O11    -5.5297   -2.4332    3.7792 O.co2    1 ZINC000230034399   -1.0900
12     O12    -6.6839   -0.2081    3.4927 O.co2    1 ZINC000230034399   -1.1100
13     O13    -4.9937   -0.5145    5.4128 O.3      1 ZINC000230034399   -0.7700
14     C14    -5.7932   -0.9035    6.5315 C.3      1 ZINC000230034399    0.1400
15     C15    -5.1600   -0.3738    7.8197 C.3      1 ZINC000230034399    0.0700
16     H16    -4.1216   -0.6974    7.8922 H        1 ZINC000230034399    0.1000
17     O17    -5.2418    1.0674    7.8644 O.3      1 ZINC000230034399   -0.3500
18     C18    -5.0952    1.4137    9.2588 C.3      1 ZINC000230034399    0.2600
19     H19    -4.0471    1.3643    9.5540 H        1 ZINC000230034399    0.1200
20     N20    -5.6323    2.7532    9.5108 N.pl3    1 ZINC000230034399   -0.4500
21     C21    -6.5726    3.3988    8.7642 C.2      1 ZINC000230034399    0.2900
22     N22    -6.8163    4.5715    9.2733 N.2      1 ZINC000230034399   -0.4800
23     C23    -6.0501    4.7525   10.3758 C.ar     1 ZINC000230034399   -0.1000
24     C24    -5.8887    5.7921   11.3071 C.ar     1 ZINC000230034399    0.5000
25     N25    -6.6189    6.9624   11.1956 N.pl3    1 ZINC000230034399   -0.8300
26     N26    -5.0187    5.6253   12.2979 N.ar     1 ZINC000230034399   -0.6000
27     C27    -4.3180    4.5120   12.4125 C.ar     1 ZINC000230034399    0.3400
28     N28    -4.4357    3.5124   11.5639 N.ar     1 ZINC000230034399   -0.5400
29     C29    -5.2855    3.5857   10.5448 C.ar     1 ZINC000230034399    0.2900
30     C30    -5.9186    0.3500   10.0184 C.3      1 ZINC000230034399    0.0600
31     H31    -6.9256    0.7168   10.2173 H        1 ZINC000230034399    0.0700
32     O32    -5.2678   -0.0095   11.2387 O.3      1 ZINC000230034399   -0.5000
33     C33    -5.9604   -0.8555    9.0500 C.3      1 ZINC000230034399    0.1500
34     H34    -6.9885   -1.0844    8.7693 H        1 ZINC000230034399    0.0800
35     O35    -5.3390   -1.9969    9.6442 O.3      1 ZINC000230034399   -0.7200
36     P36    -6.1061   -3.3940    9.8716 P.3      1 ZINC000230034399    2.1200
37     O37    -7.4141   -3.1433   10.6966 O.co2    1 ZINC000230034399   -1.1900
38     O38    -6.4759   -4.0187    8.4833 O.co2    1 ZINC000230034399   -1.1700
39     O39    -5.1746   -4.3795   10.6562 O.co2    1 ZINC000230034399   -1.1700
40     C40     0.6157   -0.4483   -1.2974 C.3      1 ZINC000230034399    0.1100
41     H41     1.6142   -0.0124   -1.2635 H        1 ZINC000230034399    0.1200
42     O42     0.7190   -1.8618   -1.4801 O.3      1 ZINC000230034399   -0.5400
43     C43    -0.1555    0.1515   -2.4448 C.2      1 ZINC000230034399    0.4900
44     O44    -0.7013   -0.5707   -3.2519 O.2      1 ZINC000230034399   -0.5300
45     N45    -0.2388    1.4905   -2.5740 N.am     1 ZINC000230034399   -0.7300
46     C46    -1.0675    2.0742   -3.6317 C.3      1 ZINC000230034399    0.1300
47     C47    -0.9878    3.6004   -3.5583 C.3      1 ZINC000230034399   -0.1500
48     C48    -1.8403    4.2008   -4.6463 C.2      1 ZINC000230034399    0.5200
49     O49    -2.4515    3.4791   -5.4056 O.2      1 ZINC000230034399   -0.5300
50     N50    -1.9236    5.5398   -4.7755 N.am     1 ZINC000230034399   -0.7300
51     C51    -2.7523    6.1235   -5.8332 C.3      1 ZINC000230034399    0.1400
52     C52    -2.6726    7.6497   -5.7598 C.3      1 ZINC000230034399   -0.1100
53     S53    -3.6965    8.3708   -7.0665 S.3      1 ZINC000230034399   -0.1400
54     C54    -3.4343   10.0356   -6.7650 C.2      1 ZINC000230034399    0.3300
55     O55    -2.7095   10.3805   -5.8552 O.2      1 ZINC000230034399   -0.4300
56     C56    -4.1038   11.0725   -7.6296 C.3      1 ZINC000230034399   -0.1800
57     C57    -3.7053   12.4700   -7.1510 C.3      1 ZINC000230034399    0.1200
58     H58    -3.9387   12.5714   -6.0912 H        1 ZINC000230034399    0.1100
59     O59    -2.3030   12.6599   -7.3503 O.3      1 ZINC000230034399   -0.5500
60     C60    -4.4805   13.5220   -7.9469 C.3      1 ZINC000230034399   -0.1500
61     C61    -4.1765   14.9124   -7.3856 C.3      1 ZINC000230034399   -0.0900
62     C62    -4.9517   15.9644   -8.1814 C.3      1 ZINC000230034399   -0.1800
63     C63    -4.6523   17.3339   -7.6285 C.2      1 ZINC000230034399    0.4900
64     O64    -3.8896   17.4572   -6.6853 O.co2    1 ZINC000230034399   -0.7000
65     O65    -5.1728   18.3187   -8.1243 O.co2    1 ZINC000230034399   -0.7100
66     H66     0.9273    1.7171    0.2410 H        1 ZINC000230034399    0.0500
67     H67    -0.6966    1.8597   -0.4738 H        1 ZINC000230034399    0.0600
68     H68    -0.5157    1.5492    1.2695 H        1 ZINC000230034399    0.0800
69     H69     0.0362   -0.7245    2.0879 H        1 ZINC000230034399    0.0800
70     H70     0.6331   -1.9505    0.9439 H        1 ZINC000230034399    0.0600
71     H71     1.6022   -0.4943    1.2737 H        1 ZINC000230034399    0.0500
72     H72    -2.0617   -0.1228   -0.9028 H        1 ZINC000230034399    0.0500
73     H73    -1.5712   -1.7147   -0.2755 H        1 ZINC000230034399    0.0500
74     H74    -6.7959   -0.4901    6.4229 H        1 ZINC000230034399    0.0600
75     H75    -5.8514   -1.9911    6.5758 H        1 ZINC000230034399    0.1000
76     H76    -7.0452    2.9967    7.8803 H        1 ZINC000230034399    0.2300
77     H77    -7.2511    7.0721   10.4681 H        1 ZINC000230034399    0.4200
78     H78    -6.4986    7.6729   11.8449 H        1 ZINC000230034399    0.4000
79     H79    -3.6219    4.4181   13.2329 H        1 ZINC000230034399    0.2000
80     H80    -5.1613    0.7248   11.8588 H        1 ZINC000230034399    0.3500
81     H81    -0.1335   -2.3166   -1.5195 H        1 ZINC000230034399    0.3900
82     H82     0.2500    2.0677   -1.9666 H        1 ZINC000230034399    0.4000
83     H83    -0.7064    1.7378   -4.6035 H        1 ZINC000230034399    0.0700
84     H84    -2.1021    1.7576   -3.4990 H        1 ZINC000230034399    0.0800
85     H85    -1.3490    3.9367   -2.5864 H        1 ZINC000230034399    0.1100
86     H86     0.0467    3.9170   -3.6909 H        1 ZINC000230034399    0.1000
87     H87    -1.4348    6.1170   -4.1681 H        1 ZINC000230034399    0.4000
88     H88    -2.3912    5.7871   -6.8050 H        1 ZINC000230034399    0.0800
89     H89    -3.7869    5.8069   -5.7005 H        1 ZINC000230034399    0.0800
90     H90    -3.0338    7.9860   -4.7879 H        1 ZINC000230034399    0.1000
91     H91    -1.6381    7.9663   -5.8924 H        1 ZINC000230034399    0.1000
92     H92    -3.7900   10.9398   -8.6650 H        1 ZINC000230034399    0.1100
93     H93    -5.1857   10.9596   -7.5605 H        1 ZINC000230034399    0.1100
94     H94    -2.0229   12.5835   -8.2727 H        1 ZINC000230034399    0.3600
95     H95    -4.1806   13.4793   -8.9939 H        1 ZINC000230034399    0.0600
96     H96    -5.5493   13.3235   -7.8667 H        1 ZINC000230034399    0.0700
97     H97    -4.4765   14.9551   -6.3385 H        1 ZINC000230034399    0.0600
98     H98    -3.1078   15.1109   -7.4657 H        1 ZINC000230034399    0.0700
99     H99    -4.6518   15.9217   -9.2285 H        1 ZINC000230034399    0.0500
100    H100   -6.0205   15.7659   -8.1012 H        1 ZINC000230034399    0.0500
@<TRIPOS>BOND
1     1     2     1
2     1     66    1
3     1     67    1
4     1     68    1
5     2     3     1
6     2     4     1
7     2     40    1
8     3     69    1
9     3     70    1
10    3     71    1
11    4     5     1
12    4     72    1
13    4     73    1
14    5     6     1
15    6     7     ar
16    6     8     ar
17    6     9     1
18    9     10    1
19    10    11    ar
20    10    12    ar
21    10    13    1
22    13    14    1
23    14    15    1
24    14    74    1
25    14    75    1
26    15    16    1
27    15    33    1
28    15    17    1
29    17    18    1
30    18    19    1
31    18    20    1
32    18    30    1
33    20    29    1
34    20    21    1
35    21    22    2
36    21    76    1
37    22    23    1
38    23    29    ar
39    23    24    ar
40    24    25    1
41    24    26    ar
42    25    77    1
43    25    78    1
44    26    27    ar
45    27    28    ar
46    27    79    1
47    28    29    ar
48    30    31    1
49    30    32    1
50    30    33    1
51    32    80    1
52    33    34    1
53    33    35    1
54    35    36    1
55    36    37    ar
56    36    38    ar
57    36    39    ar
58    40    41    1
59    40    42    1
60    40    43    1
61    42    81    1
62    43    44    2
63    43    45    am
64    45    46    1
65    45    82    1
66    46    47    1
67    46    83    1
68    46    84    1
69    47    48    1
70    47    85    1
71    47    86    1
72    48    49    2
73    48    50    am
74    50    51    1
75    50    87    1
76    51    52    1
77    51    88    1
78    51    89    1
79    52    53    1
80    52    90    1
81    52    91    1
82    53    54    1
83    54    55    2
84    54    56    1
85    56    57    1
86    56    92    1
87    56    93    1
88    57    58    1
89    57    59    1
90    57    60    1
91    59    94    1
92    60    61    1
93    60    95    1
94    60    96    1
95    61    62    1
96    61    97    1
97    61    98    1
98    62    63    1
99    62    99    1
100   62    100   1
101   63    64    ar
102   63    65    ar
@<TRIPOS>SUBSTRUCTURE
1   ZINC000230034399 1     RESIDUE    1   A     ZIN   1
@<TRIPOS>MOLECULE
ZINC000230026341
94    96    1     0     0
SMALL
USER_CHARGES
@<TRIPOS>ATOM
1      C1     -0.0985    1.3509    0.2822 C.3      1 ZINC000230026341   -0.1500
2      C2     -0.1133   -0.1556    0.0155 C.3      1 ZINC000230026341   -0.1000
3      C3      0.5901   -0.8836    1.1627 C.3      1 ZINC000230026341   -0.1300
4      C4     -1.5606   -0.6414   -0.0855 C.3      1 ZINC000230026341    0.1400
5      O5     -2.2415   -0.3681    1.1407 O.3      1 ZINC000230026341   -0.7600
6      P6     -3.7866   -0.7464    1.3890 P.3      1 ZINC000230026341    2.2900
7      O7     -3.9980   -2.2527    1.1177 O.co2    1 ZINC000230026341   -1.1000
8      O8     -4.6786    0.0789    0.4349 O.co2    1 ZINC000230026341   -1.1100
9      O9     -4.1819   -0.4152    2.9141 O.3      1 ZINC000230026341   -1.0900
10     P10    -5.3629   -0.9016    3.8943 P.3      1 ZINC000230026341    2.2900
11     O11    -5.5297   -2.4332    3.7792 O.co2    1 ZINC000230026341   -1.0900
12     O12    -6.6839   -0.2081    3.4927 O.co2    1 ZINC000230026341   -1.1100
13     O13    -4.9937   -0.5145    5.4128 O.3      1 ZINC000230026341   -0.7700
14     C14    -5.7932   -0.9035    6.5315 C.3      1 ZINC000230026341    0.1400
15     C15    -5.1600   -0.3738    7.8197 C.3      1 ZINC000230026341    0.0700
16     H16    -4.1216   -0.6974    7.8922 H        1 ZINC000230026341    0.1000
17     O17    -5.2418    1.0674    7.8644 O.3      1 ZINC000230026341   -0.3500
18     C18    -5.0952    1.4137    9.2588 C.3      1 ZINC000230026341    0.2600
19     H19    -4.0471    1.3643    9.5540 H        1 ZINC000230026341    0.1100
20     N20    -5.6323    2.7532    9.5108 N.pl3    1 ZINC000230026341   -0.4500
21     C21    -6.5726    3.3988    8.7642 C.2      1 ZINC000230026341    0.3000
22     N22    -6.8163    4.5715    9.2733 N.2      1 ZINC000230026341   -0.4800
23     C23    -6.0501    4.7525   10.3758 C.ar     1 ZINC000230026341   -0.1000
24     C24    -5.8887    5.7921   11.3071 C.ar     1 ZINC000230026341    0.5000
25     N25    -6.6189    6.9624   11.1956 N.pl3    1 ZINC000230026341   -0.8300
26     N26    -5.0187    5.6253   12.2979 N.ar     1 ZINC000230026341   -0.6000
27     C27    -4.3180    4.5120   12.4125 C.ar     1 ZINC000230026341    0.3400
28     N28    -4.4357    3.5124   11.5639 N.ar     1 ZINC000230026341   -0.5400
29     C29    -5.2855    3.5857   10.5448 C.ar     1 ZINC000230026341    0.2900
30     C30    -5.9186    0.3500   10.0184 C.3      1 ZINC000230026341    0.0600
31     H31    -5.4210    0.0740   10.9481 H        1 ZINC000230026341    0.0900
32     O32    -7.2377    0.8321   10.2820 O.3      1 ZINC000230026341   -0.5300
33     C33    -5.9604   -0.8555    9.0500 C.3      1 ZINC000230026341    0.1500
34     H34    -6.9885   -1.0844    8.7693 H        1 ZINC000230026341    0.0900
35     O35    -5.3390   -1.9969    9.6442 O.3      1 ZINC000230026341   -0.7400
36     P36    -6.1061   -3.3940    9.8716 P.3      1 ZINC000230026341    2.1100
37     O37    -7.4141   -3.1433   10.6966 O.co2    1 ZINC000230026341   -1.1800
38     O38    -6.4759   -4.0187    8.4833 O.co2    1 ZINC000230026341   -1.1700
39     O39    -5.1746   -4.3795   10.6562 O.co2    1 ZINC000230026341   -1.1700
40     C40     0.6157   -0.4483   -1.2974 C.3      1 ZINC000230026341    0.1100
41     H41     1.6142   -0.0124   -1.2635 H        1 ZINC000230026341    0.1200
42     O42     0.7190   -1.8618   -1.4801 O.3      1 ZINC000230026341   -0.5400
43     C43    -0.1555    0.1515   -2.4448 C.2      1 ZINC000230026341    0.4900
44     O44    -0.7013   -0.5707   -3.2519 O.2      1 ZINC000230026341   -0.5300
45     N45    -0.2388    1.4905   -2.5740 N.am     1 ZINC000230026341   -0.7300
46     C46    -1.0675    2.0742   -3.6317 C.3      1 ZINC000230026341    0.1300
47     C47    -0.9878    3.6004   -3.5583 C.3      1 ZINC000230026341   -0.1500
48     C48    -1.8403    4.2008   -4.6463 C.2      1 ZINC000230026341    0.5200
49     O49    -2.4515    3.4791   -5.4056 O.2      1 ZINC000230026341   -0.5300
50     N50    -1.9236    5.5398   -4.7755 N.am     1 ZINC000230026341   -0.7300
51     C51    -2.7523    6.1235   -5.8332 C.3      1 ZINC000230026341    0.1400
52     C52    -2.6726    7.6497   -5.7598 C.3      1 ZINC000230026341   -0.1100
53     S53    -3.6965    8.3708   -7.0665 S.3      1 ZINC000230026341   -0.1500
54     C54    -3.4343   10.0356   -6.7650 C.2      1 ZINC000230026341    0.3400
55     O55    -2.7095   10.3805   -5.8552 O.2      1 ZINC000230026341   -0.4200
56     C56    -4.1038   11.0725   -7.6296 C.3      1 ZINC000230026341   -0.1500
57     C57    -3.7053   12.4700   -7.1510 C.3      1 ZINC000230026341    0.0700
58     C58    -2.1866   12.6285   -7.2480 C.3      1 ZINC000230026341   -0.1300
59     O59    -4.1167   12.6440   -5.7936 O.3      1 ZINC000230026341   -0.5400
60     C60    -4.3748   13.5070   -8.0157 C.2      1 ZINC000230026341    0.4800
61     O61    -5.1339   14.3196   -7.5158 O.co2    1 ZINC000230026341   -0.6900
62     O62    -4.1574   13.5332   -9.2150 O.co2    1 ZINC000230026341   -0.6900
63     H63     0.9273    1.7171    0.2410 H        1 ZINC000230026341    0.0500
64     H64    -0.6966    1.8597   -0.4738 H        1 ZINC000230026341    0.0600
65     H65    -0.5157    1.5492    1.2695 H        1 ZINC000230026341    0.0800
66     H66     0.0362   -0.7245    2.0879 H        1 ZINC000230026341    0.0800
67     H67     0.6331   -1.9505    0.9439 H        1 ZINC000230026341    0.0600
68     H68     1.6022   -0.4943    1.2737 H        1 ZINC000230026341    0.0500
69     H69    -2.0617   -0.1228   -0.9028 H        1 ZINC000230026341    0.0500
70     H70    -1.5712   -1.7147   -0.2755 H        1 ZINC000230026341    0.0500
71     H71    -6.7959   -0.4901    6.4229 H        1 ZINC000230026341    0.0600
72     H72    -5.8514   -1.9911    6.5758 H        1 ZINC000230026341    0.1000
73     H73    -7.0452    2.9967    7.8803 H        1 ZINC000230026341    0.2300
74     H74    -7.2511    7.0721   10.4681 H        1 ZINC000230026341    0.4200
75     H75    -6.4986    7.6729   11.8449 H        1 ZINC000230026341    0.4000
76     H76    -3.6219    4.4181   13.2329 H        1 ZINC000230026341    0.2000
77     H77    -7.2637    1.6230   10.8377 H        1 ZINC000230026341    0.3500
78     H78    -0.1335   -2.3166   -1.5195 H        1 ZINC000230026341    0.3900
79     H79     0.2500    2.0677   -1.9666 H        1 ZINC000230026341    0.4000
80     H80    -0.7064    1.7378   -4.6035 H        1 ZINC000230026341    0.0700
81     H81    -2.1021    1.7576   -3.4990 H        1 ZINC000230026341    0.0800
82     H82    -1.3490    3.9367   -2.5864 H        1 ZINC000230026341    0.1100
83     H83     0.0467    3.9170   -3.6909 H        1 ZINC000230026341    0.1000
84     H84    -1.4348    6.1170   -4.1681 H        1 ZINC000230026341    0.4000
85     H85    -2.3912    5.7871   -6.8050 H        1 ZINC000230026341    0.0800
86     H86    -3.7869    5.8069   -5.7005 H        1 ZINC000230026341    0.0800
87     H87    -3.0338    7.9860   -4.7879 H        1 ZINC000230026341    0.1000
88     H88    -1.6381    7.9663   -5.8924 H        1 ZINC000230026341    0.1000
89     H89    -3.7900   10.9398   -8.6650 H        1 ZINC000230026341    0.1100
90     H90    -5.1857   10.9596   -7.5605 H        1 ZINC000230026341    0.1000
91     H91    -1.8729   12.4958   -8.2834 H        1 ZINC000230026341    0.0600
92     H92    -1.9027   13.6241   -6.9071 H        1 ZINC000230026341    0.0500
93     H93    -1.7024   11.8785   -6.6227 H        1 ZINC000230026341    0.0700
94     H94    -5.0700   12.5568   -5.6573 H        1 ZINC000230026341    0.3700
@<TRIPOS>BOND
1     1     2     1
2     1     63    1
3     1     64    1
4     1     65    1
5     2     3     1
6     2     4     1
7     2     40    1
8     3     66    1
9     3     67    1
10    3     68    1
11    4     5     1
12    4     69    1
13    4     70    1
14    5     6     1
15    6     7     ar
16    6     8     ar
17    6     9     1
18    9     10    1
19    10    11    ar
20    10    12    ar
21    10    13    1
22    13    14    1
23    14    15    1
24    14    71    1
25    14    72    1
26    15    16    1
27    15    33    1
28    15    17    1
29    17    18    1
30    18    19    1
31    18    20    1
32    18    30    1
33    20    29    1
34    20    21    1
35    21    22    2
36    21    73    1
37    22    23    1
38    23    29    ar
39    23    24    ar
40    24    25    1
41    24    26    ar
42    25    74    1
43    25    75    1
44    26    27    ar
45    27    28    ar
46    27    76    1
47    28    29    ar
48    30    31    1
49    30    32    1
50    30    33    1
51    32    77    1
52    33    34    1
53    33    35    1
54    35    36    1
55    36    37    ar
56    36    38    ar
57    36    39    ar
58    40    41    1
59    40    42    1
60    40    43    1
61    42    78    1
62    43    44    2
63    43    45    am
64    45    46    1
65    45    79    1
66    46    47    1
67    46    80    1
68    46    81    1
69    47    48    1
70    47    82    1
71    47    83    1
72    48    49    2
73    48    50    am
74    50    51    1
75    50    84    1
76    51    52    1
77    51    85    1
78    51    86    1
79    52    53    1
80    52    87    1
81    52    88    1
82    53    54    1
83    54    55    2
84    54    56    1
85    56    57    1
86    56    89    1
87    56    90    1
88    57    58    1
89    57    59    1
90    57    60    1
91    58    91    1
92    58    92    1
93    58    93    1
94    59    94    1
95    60    61    ar
96    60    62    ar
@<TRIPOS>SUBSTRUCTURE
1   ZINC000230026341 1     RESIDUE    1   A     ZIN   1
@<TRIPOS>MOLECULE
ZINC000230026446
105   107   1     0     0
SMALL
USER_CHARGES
@<TRIPOS>ATOM
1      C1     -1.5087  -21.9100   -2.8940 C.2      1 ZINC000230026446   -0.1800
2      C2     -2.7667  -22.1731   -2.6403 C.2      1 ZINC000230026446   -0.1200
3      C3     -3.6572  -21.1056   -2.0584 C.3      1 ZINC000230026446   -0.0700
4      C4     -4.4001  -20.4103   -3.1701 C.2      1 ZINC000230026446   -0.0500
5      C5     -4.3477  -19.0858   -3.2780 C.2      1 ZINC000230026446   -0.1900
6      C6     -3.6291  -18.2725   -2.2325 C.3      1 ZINC000230026446   -0.1200
7      C7     -4.9911  -18.4148   -4.4179 C.2      1 ZINC000230026446    0.3900
8      O8     -5.5713  -19.0715   -5.2620 O.2      1 ZINC000230026446   -0.4500
9      S9     -4.9217  -16.6600   -4.5609 S.3      1 ZINC000230026446   -0.1400
10     C10    -5.8503  -16.4330   -6.0979 C.3      1 ZINC000230026446   -0.1200
11     C11    -5.9237  -14.9421   -6.4339 C.3      1 ZINC000230026446    0.1400
12     N12    -6.6752  -14.7583   -7.6780 N.am     1 ZINC000230026446   -0.7300
13     C13    -6.8687  -13.5193   -8.1716 C.2      1 ZINC000230026446    0.5200
14     O14    -6.4206  -12.5564   -7.5860 O.2      1 ZINC000230026446   -0.5300
15     C15    -7.6418  -13.3302   -9.4514 C.3      1 ZINC000230026446   -0.1500
16     C16    -7.7152  -11.8394   -9.7873 C.3      1 ZINC000230026446    0.1400
17     N17    -8.4668  -11.6556  -11.0314 N.am     1 ZINC000230026446   -0.7400
18     C18    -8.6602  -10.4165  -11.5251 C.2      1 ZINC000230026446    0.5000
19     O19    -8.2975   -9.4480  -10.8916 O.2      1 ZINC000230026446   -0.5200
20     C20    -9.3271  -10.2346  -12.8642 C.3      1 ZINC000230026446    0.1000
21     H21   -10.1610   -9.5399  -12.7633 H        1 ZINC000230026446    0.1400
22     O22    -9.8113  -11.4956  -13.3304 O.3      1 ZINC000230026446   -0.5500
23     C23    -8.3153   -9.6747  -13.8660 C.3      1 ZINC000230026446   -0.0900
24     C24    -7.8287   -8.3051  -13.3881 C.3      1 ZINC000230026446   -0.1400
25     C25    -7.1245  -10.6292  -13.9756 C.3      1 ZINC000230026446   -0.1400
26     C26    -8.9807   -9.5300  -15.2361 C.3      1 ZINC000230026446    0.1500
27     O27    -8.0357   -9.0071  -16.1718 O.3      1 ZINC000230026446   -0.7700
28     P28    -8.3944   -8.7255  -17.7158 P.3      1 ZINC000230026446    2.2900
29     O29    -8.9525  -10.0150  -18.3584 O.co2    1 ZINC000230026446   -1.1000
30     O30    -9.4557   -7.6061  -17.8021 O.co2    1 ZINC000230026446   -1.1100
31     O31    -7.0654   -8.2667  -18.5004 O.3      1 ZINC000230026446   -1.0900
32     P32    -6.6733   -8.1394  -20.0568 P.3      1 ZINC000230026446    2.2900
33     O33    -7.2575   -9.3395  -20.8349 O.co2    1 ZINC000230026446   -1.1000
34     O34    -7.2511   -6.8251  -20.6275 O.co2    1 ZINC000230026446   -1.1000
35     O35    -5.0704   -8.1310  -20.2074 O.3      1 ZINC000230026446   -0.7700
36     C36    -4.4077   -8.1331  -21.4734 C.3      1 ZINC000230026446    0.1400
37     C37    -2.8932   -8.1236  -21.2563 C.3      1 ZINC000230026446    0.0700
38     H38    -2.6076   -7.2890  -20.6159 H        1 ZINC000230026446    0.1000
39     O39    -2.4606   -9.3734  -20.6760 O.3      1 ZINC000230026446   -0.3500
40     C40    -1.0494   -9.4613  -20.9703 C.3      1 ZINC000230026446    0.2600
41     H41    -0.4793   -8.8317  -20.2871 H        1 ZINC000230026446    0.1100
42     N42    -0.5953  -10.8512  -20.8805 N.pl3    1 ZINC000230026446   -0.4500
43     C43    -1.3706  -11.9637  -21.0203 C.2      1 ZINC000230026446    0.3000
44     N44    -0.6426  -13.0334  -20.8808 N.2      1 ZINC000230026446   -0.4800
45     C45     0.6425  -12.6765  -20.6433 C.ar     1 ZINC000230026446   -0.1000
46     C46     1.8379  -13.3797  -20.4180 C.ar     1 ZINC000230026446    0.5000
47     N47     1.8546  -14.7635  -20.4099 N.pl3    1 ZINC000230026446   -0.8300
48     N48     2.9523  -12.6850  -20.2131 N.ar     1 ZINC000230026446   -0.6000
49     C49     2.9459  -11.3646  -20.2195 C.ar     1 ZINC000230026446    0.3400
50     N50     1.8505  -10.6642  -20.4258 N.ar     1 ZINC000230026446   -0.5400
51     C51     0.6894  -11.2720  -20.6462 C.ar     1 ZINC000230026446    0.2900
52     C52    -0.9152   -8.9418  -22.4190 C.3      1 ZINC000230026446    0.0600
53     H53    -0.0002   -8.3605  -22.5330 H        1 ZINC000230026446    0.0900
54     O54    -0.9343  -10.0300  -23.3450 O.3      1 ZINC000230026446   -0.5300
55     C55    -2.1561   -8.0385  -22.6112 C.3      1 ZINC000230026446    0.1500
56     H56    -2.7874   -8.4223  -23.4126 H        1 ZINC000230026446    0.0900
57     O57    -1.7588   -6.6942  -22.8887 O.3      1 ZINC000230026446   -0.7400
58     P58    -2.1874   -5.9121  -24.2292 P.3      1 ZINC000230026446    2.1100
59     O59    -1.7600   -6.7501  -25.4820 O.co2    1 ZINC000230026446   -1.1800
60     O60    -3.7409   -5.7097  -24.2415 O.co2    1 ZINC000230026446   -1.1700
61     O61    -1.4785   -4.5156  -24.2683 O.co2    1 ZINC000230026446   -1.1700
62     C62    -3.3234  -23.5432   -2.9302 C.3      1 ZINC000230026446   -0.0600
63     C63    -3.8480  -24.1652   -1.6345 C.3      1 ZINC000230026446   -0.1500
64     C64    -4.4674  -23.4258   -3.9393 C.3      1 ZINC000230026446   -0.1500
65     H65    -0.8705  -22.6751   -3.3110 H        1 ZINC000230026446    0.1000
66     H66    -1.1109  -20.9268   -2.6904 H        1 ZINC000230026446    0.1000
67     H67    -4.3720  -21.5622   -1.3738 H        1 ZINC000230026446    0.0900
68     H68    -3.0492  -20.3799   -1.5182 H        1 ZINC000230026446    0.0900
69     H69    -4.9749  -20.9875   -3.8791 H        1 ZINC000230026446    0.1300
70     H70    -2.5647  -18.2405   -2.4652 H        1 ZINC000230026446    0.0800
71     H71    -4.0294  -17.2587   -2.2223 H        1 ZINC000230026446    0.0700
72     H72    -3.7734  -18.7299   -1.2537 H        1 ZINC000230026446    0.0800
73     H73    -5.3486  -16.9635   -6.9072 H        1 ZINC000230026446    0.1000
74     H74    -6.8588  -16.8278   -5.9749 H        1 ZINC000230026446    0.1000
75     H75    -6.4254  -14.4116   -5.6246 H        1 ZINC000230026446    0.0800
76     H76    -4.9152  -14.5473   -6.5570 H        1 ZINC000230026446    0.0800
77     H77    -7.0336  -15.5285   -8.1464 H        1 ZINC000230026446    0.4000
78     H78    -7.1401  -13.8608  -10.2607 H        1 ZINC000230026446    0.1100
79     H79    -8.6503  -13.7251   -9.3283 H        1 ZINC000230026446    0.1000
80     H80    -8.2169  -11.3088   -8.9780 H        1 ZINC000230026446    0.0700
81     H81    -6.7067  -11.4445   -9.9104 H        1 ZINC000230026446    0.0800
82     H82    -8.8251  -12.4257  -11.4998 H        1 ZINC000230026446    0.4000
83     H83    -9.1219  -12.1642  -13.4435 H        1 ZINC000230026446    0.3700
84     H84    -7.2354   -8.4263  -12.4818 H        1 ZINC000230026446    0.0600
85     H85    -7.2167   -7.8458  -14.1643 H        1 ZINC000230026446    0.0800
86     H86    -8.6875   -7.6676  -13.1777 H        1 ZINC000230026446    0.0500
87     H87    -7.4712  -11.6050  -14.3160 H        1 ZINC000230026446    0.0500
88     H88    -6.4037  -10.2304  -14.6893 H        1 ZINC000230026446    0.0800
89     H89    -6.6505  -10.7323  -12.9995 H        1 ZINC000230026446    0.0400
90     H90    -9.3273  -10.5058  -15.5765 H        1 ZINC000230026446    0.0600
91     H91    -9.8290   -8.8500  -15.1580 H        1 ZINC000230026446    0.0500
92     H92    -4.6893   -9.0273  -22.0295 H        1 ZINC000230026446    0.0600
93     H93    -4.6994   -7.2474  -22.0377 H        1 ZINC000230026446    0.1000
94     H94    -2.4325  -11.9582  -21.2171 H        1 ZINC000230026446    0.2300
95     H95     1.0346  -15.2593  -20.5610 H        1 ZINC000230026446    0.4200
96     H96     2.6862  -15.2376  -20.2532 H        1 ZINC000230026446    0.4000
97     H97     3.8741  -10.8395  -20.0487 H        1 ZINC000230026446    0.2000
98     H98    -0.2086  -10.6583  -23.2284 H        1 ZINC000230026446    0.3500
99     H99    -2.5372  -24.1746   -3.3441 H        1 ZINC000230026446    0.0800
100    H100   -4.6341  -23.5337   -1.2206 H        1 ZINC000230026446    0.0600
101    H101   -4.2506  -25.1562   -1.8443 H        1 ZINC000230026446    0.0600
102    H102   -3.0329  -24.2488   -0.9156 H        1 ZINC000230026446    0.0600
103    H103   -4.0937  -22.9826   -4.8624 H        1 ZINC000230026446    0.0600
104    H104   -4.8700  -24.4167   -4.1490 H        1 ZINC000230026446    0.0600
105    H105   -5.2536  -22.7943   -3.5254 H        1 ZINC000230026446    0.0600
@<TRIPOS>BOND
1     1     2     2
2     1     65    1
3     1     66    1
4     2     3     1
5     2     62    1
6     3     4     1
7     3     67    1
8     3     68    1
9     4     5     2
10    4     69    1
11    5     6     1
12    5     7     1
13    6     70    1
14    6     71    1
15    6     72    1
16    7     8     2
17    7     9     1
18    9     10    1
19    10    11    1
20    10    73    1
21    10    74    1
22    11    12    1
23    11    75    1
24    11    76    1
25    12    13    am
26    12    77    1
27    13    14    2
28    13    15    1
29    15    16    1
30    15    78    1
31    15    79    1
32    16    17    1
33    16    80    1
34    16    81    1
35    17    18    am
36    17    82    1
37    18    19    2
38    18    20    1
39    20    21    1
40    20    22    1
41    20    23    1
42    22    83    1
43    23    24    1
44    23    25    1
45    23    26    1
46    24    84    1
47    24    85    1
48    24    86    1
49    25    87    1
50    25    88    1
51    25    89    1
52    26    27    1
53    26    90    1
54    26    91    1
55    27    28    1
56    28    29    ar
57    28    30    ar
58    28    31    1
59    31    32    1
60    32    33    ar
61    32    34    ar
62    32    35    1
63    35    36    1
64    36    37    1
65    36    92    1
66    36    93    1
67    37    38    1
68    37    55    1
69    37    39    1
70    39    40    1
71    40    41    1
72    40    42    1
73    40    52    1
74    42    51    1
75    42    43    1
76    43    44    2
77    43    94    1
78    44    45    1
79    45    51    ar
80    45    46    ar
81    46    47    1
82    46    48    ar
83    47    95    1
84    47    96    1
85    48    49    ar
86    49    50    ar
87    49    97    1
88    50    51    ar
89    52    53    1
90    52    54    1
91    52    55    1
92    54    98    1
93    55    56    1
94    55    57    1
95    57    58    1
96    58    59    ar
97    58    60    ar
98    58    61    ar
99    62    63    1
100   62    64    1
101   62    99    1
102   63    100   1
103   63    101   1
104   63    102   1
105   64    103   1
106   64    104   1
107   64    105   1
@<TRIPOS>SUBSTRUCTURE
1   ZINC000230026446 1     RESIDUE    1   A     ZIN   1
@<TRIPOS>MOLECULE
ZINC000230034935
97    99    1     0     0
SMALL
USER_CHARGES
@<TRIPOS>ATOM
1      C1     -0.0985    1.3509    0.2822 C.3      1 ZINC000230034935   -0.1500
2      C2     -0.1133   -0.1556    0.0155 C.3      1 ZINC000230034935   -0.1000
3      C3      0.5901   -0.8836    1.1627 C.3      1 ZINC000230034935   -0.1300
4      C4     -1.5606   -0.6414   -0.0855 C.3      1 ZINC000230034935    0.1400
5      O5     -2.2415   -0.3681    1.1407 O.3      1 ZINC000230034935   -0.7600
6      P6     -3.7866   -0.7464    1.3890 P.3      1 ZINC000230034935    2.2900
7      O7     -3.9980   -2.2527    1.1177 O.co2    1 ZINC000230034935   -1.1000
8      O8     -4.6786    0.0789    0.4349 O.co2    1 ZINC000230034935   -1.1100
9      O9     -4.1819   -0.4152    2.9141 O.3      1 ZINC000230034935   -1.0900
10     P10    -5.3629   -0.9016    3.8943 P.3      1 ZINC000230034935    2.2900
11     O11    -5.5297   -2.4332    3.7792 O.co2    1 ZINC000230034935   -1.1000
12     O12    -6.6839   -0.2081    3.4927 O.co2    1 ZINC000230034935   -1.1000
13     O13    -4.9937   -0.5145    5.4128 O.3      1 ZINC000230034935   -0.7700
14     C14    -5.7932   -0.9035    6.5315 C.3      1 ZINC000230034935    0.1400
15     C15    -5.1600   -0.3738    7.8197 C.3      1 ZINC000230034935    0.0700
16     H16    -5.0058    0.7024    7.7414 H        1 ZINC000230034935    0.1000
17     O17    -3.9035   -1.0318    8.0532 O.3      1 ZINC000230034935   -0.3600
18     C18    -3.7563   -1.1643    9.4833 C.3      1 ZINC000230034935    0.2600
19     H19    -3.4394   -0.2198    9.9257 H        1 ZINC000230034935    0.1200
20     N20    -2.8040   -2.2292    9.8075 N.pl3    1 ZINC000230034935   -0.4500
21     C21    -2.4668   -3.2807    9.0080 C.2      1 ZINC000230034935    0.2900
22     N22    -1.5926   -4.0341    9.6095 N.2      1 ZINC000230034935   -0.4800
23     C23    -1.3140   -3.5157   10.8297 C.ar     1 ZINC000230034935   -0.1000
24     C24    -0.4720   -3.8860   11.8919 C.ar     1 ZINC000230034935    0.5000
25     N25     0.3139   -5.0221   11.8095 N.pl3    1 ZINC000230034935   -0.8300
26     N26    -0.4476   -3.1195   12.9774 N.ar     1 ZINC000230034935   -0.6000
27     C27    -1.1937   -2.0335   13.0647 C.ar     1 ZINC000230034935    0.3400
28     N28    -1.9970   -1.6483   12.0955 N.ar     1 ZINC000230034935   -0.5400
29     C29    -2.0835   -2.3481   10.9690 C.ar     1 ZINC000230034935    0.2900
30     C30    -5.1826   -1.5390    9.9604 C.3      1 ZINC000230034935    0.0600
31     H31    -5.3729   -2.6030    9.8197 H        1 ZINC000230034935    0.0700
32     O32    -5.3786   -1.1646   11.3255 O.3      1 ZINC000230034935   -0.5000
33     C33    -6.0744   -0.6863    9.0200 C.3      1 ZINC000230034935    0.1500
34     H34    -6.9447   -1.2579    8.6975 H        1 ZINC000230034935    0.0800
35     O35    -6.4823    0.5175    9.6733 O.3      1 ZINC000230034935   -0.7200
36     P36    -8.0266    0.9119    9.9004 P.3      1 ZINC000230034935    2.1200
37     O37    -8.7767    0.8983    8.5251 O.co2    1 ZINC000230034935   -1.1800
38     O38    -8.6930   -0.1234   10.8690 O.co2    1 ZINC000230034935   -1.1800
39     O39    -8.1127    2.3448   10.5280 O.co2    1 ZINC000230034935   -1.1700
40     C40     0.6157   -0.4483   -1.2974 C.3      1 ZINC000230034935    0.1100
41     H41     1.6142   -0.0124   -1.2635 H        1 ZINC000230034935    0.1200
42     O42     0.7190   -1.8618   -1.4801 O.3      1 ZINC000230034935   -0.5400
43     C43    -0.1555    0.1515   -2.4448 C.2      1 ZINC000230034935    0.4900
44     O44    -0.7013   -0.5707   -3.2519 O.2      1 ZINC000230034935   -0.5300
45     N45    -0.2388    1.4905   -2.5740 N.am     1 ZINC000230034935   -0.7300
46     C46    -1.0675    2.0742   -3.6317 C.3      1 ZINC000230034935    0.1300
47     C47    -0.9878    3.6004   -3.5583 C.3      1 ZINC000230034935   -0.1500
48     C48    -1.8403    4.2008   -4.6463 C.2      1 ZINC000230034935    0.5200
49     O49    -2.4515    3.4791   -5.4056 O.2      1 ZINC000230034935   -0.5300
50     N50    -1.9236    5.5398   -4.7755 N.am     1 ZINC000230034935   -0.7300
51     C51    -2.7523    6.1235   -5.8332 C.3      1 ZINC000230034935    0.1400
52     C52    -2.6726    7.6497   -5.7598 C.3      1 ZINC000230034935   -0.1200
53     S53    -3.6965    8.3708   -7.0665 S.3      1 ZINC000230034935   -0.1400
54     C54    -3.4343   10.0356   -6.7650 C.2      1 ZINC000230034935    0.3300
55     O55    -2.7095   10.3805   -5.8552 O.2      1 ZINC000230034935   -0.4300
56     C56    -4.1038   11.0725   -7.6296 C.3      1 ZINC000230034935   -0.1800
57     C57    -3.7053   12.4700   -7.1510 C.3      1 ZINC000230034935    0.1200
58     H58    -2.6185   12.5527   -7.1359 H        1 ZINC000230034935    0.1000
59     O59    -4.2179   12.6870   -5.8349 O.3      1 ZINC000230034935   -0.5500
60     C60    -4.2834   13.5192   -8.1029 C.3      1 ZINC000230034935   -0.1200
61     C61    -3.7827   14.9068   -7.6972 C.3      1 ZINC000230034935   -0.1800
62     C62    -4.3521   15.9402   -8.6348 C.2      1 ZINC000230034935    0.4900
63     O63    -5.0899   15.5985   -9.5432 O.co2    1 ZINC000230034935   -0.7000
64     O64    -4.0749   17.1180   -8.4848 O.co2    1 ZINC000230034935   -0.7100
65     H65     0.9273    1.7171    0.2410 H        1 ZINC000230034935    0.0500
66     H66    -0.6966    1.8597   -0.4738 H        1 ZINC000230034935    0.0600
67     H67    -0.5157    1.5492    1.2695 H        1 ZINC000230034935    0.0800
68     H68     0.0362   -0.7245    2.0879 H        1 ZINC000230034935    0.0800
69     H69     0.6331   -1.9505    0.9439 H        1 ZINC000230034935    0.0600
70     H70     1.6022   -0.4943    1.2737 H        1 ZINC000230034935    0.0500
71     H71    -2.0617   -0.1228   -0.9028 H        1 ZINC000230034935    0.0500
72     H72    -1.5712   -1.7147   -0.2755 H        1 ZINC000230034935    0.0500
73     H73    -6.7959   -0.4901    6.4229 H        1 ZINC000230034935    0.0900
74     H74    -5.8514   -1.9911    6.5758 H        1 ZINC000230034935    0.0600
75     H75    -2.8666   -3.4620    8.0213 H        1 ZINC000230034935    0.2300
76     H76     0.2875   -5.5732   11.0117 H        1 ZINC000230034935    0.4200
77     H77     0.8911   -5.2672   12.5495 H        1 ZINC000230034935    0.4000
78     H78    -1.1432   -1.4392   13.9650 H        1 ZINC000230034935    0.2000
79     H79    -4.7799   -1.6052   11.9440 H        1 ZINC000230034935    0.3500
80     H80    -0.1335   -2.3166   -1.5195 H        1 ZINC000230034935    0.3900
81     H81     0.2500    2.0677   -1.9666 H        1 ZINC000230034935    0.4000
82     H82    -0.7064    1.7378   -4.6035 H        1 ZINC000230034935    0.0700
83     H83    -2.1021    1.7576   -3.4990 H        1 ZINC000230034935    0.0800
84     H84    -1.3490    3.9367   -2.5864 H        1 ZINC000230034935    0.1100
85     H85     0.0467    3.9170   -3.6909 H        1 ZINC000230034935    0.1000
86     H86    -1.4348    6.1170   -4.1681 H        1 ZINC000230034935    0.4000
87     H87    -2.3912    5.7871   -6.8050 H        1 ZINC000230034935    0.0800
88     H88    -3.7869    5.8069   -5.7005 H        1 ZINC000230034935    0.0800
89     H89    -3.0338    7.9860   -4.7879 H        1 ZINC000230034935    0.1000
90     H90    -1.6381    7.9663   -5.8924 H        1 ZINC000230034935    0.1000
91     H91    -3.7900   10.9398   -8.6650 H        1 ZINC000230034935    0.1100
92     H92    -5.1857   10.9596   -7.5605 H        1 ZINC000230034935    0.1100
93     H93    -5.1812   12.6282   -5.7734 H        1 ZINC000230034935    0.3700
94     H94    -3.9633   13.3010   -9.1218 H        1 ZINC000230034935    0.0700
95     H95    -5.3719   13.4962   -8.0512 H        1 ZINC000230034935    0.0700
96     H96    -4.1028   15.1250   -6.6784 H        1 ZINC000230034935    0.0600
97     H97    -2.6942   14.9298   -7.7489 H        1 ZINC000230034935    0.0500
@<TRIPOS>BOND
1     1     2     1
2     1     65    1
3     1     66    1
4     1     67    1
5     2     3     1
6     2     4     1
7     2     40    1
8     3     68    1
9     3     69    1
10    3     70    1
11    4     5     1
12    4     71    1
13    4     72    1
14    5     6     1
15    6     7     ar
16    6     8     ar
17    6     9     1
18    9     10    1
19    10    11    ar
20    10    12    ar
21    10    13    1
22    13    14    1
23    14    15    1
24    14    73    1
25    14    74    1
26    15    16    1
27    15    33    1
28    15    17    1
29    17    18    1
30    18    19    1
31    18    20    1
32    18    30    1
33    20    29    1
34    20    21    1
35    21    22    2
36    21    75    1
37    22    23    1
38    23    29    ar
39    23    24    ar
40    24    25    1
41    24    26    ar
42    25    76    1
43    25    77    1
44    26    27    ar
45    27    28    ar
46    27    78    1
47    28    29    ar
48    30    31    1
49    30    32    1
50    30    33    1
51    32    79    1
52    33    34    1
53    33    35    1
54    35    36    1
55    36    37    ar
56    36    38    ar
57    36    39    ar
58    40    41    1
59    40    42    1
60    40    43    1
61    42    80    1
62    43    44    2
63    43    45    am
64    45    46    1
65    45    81    1
66    46    47    1
67    46    82    1
68    46    83    1
69    47    48    1
70    47    84    1
71    47    85    1
72    48    49    2
73    48    50    am
74    50    51    1
75    50    86    1
76    51    52    1
77    51    87    1
78    51    88    1
79    52    53    1
80    52    89    1
81    52    90    1
82    53    54    1
83    54    55    2
84    54    56    1
85    56    57    1
86    56    91    1
87    56    92    1
88    57    58    1
89    57    59    1
90    57    60    1
91    59    93    1
92    60    61    1
93    60    94    1
94    60    95    1
95    61    62    1
96    61    96    1
97    61    97    1
98    62    63    ar
99    62    64    ar
@<TRIPOS>SUBSTRUCTURE
1   ZINC000230034935 1     RESIDUE    1   A     ZIN   1
@<TRIPOS>MOLECULE
ZINC000008551261
77    79    1     0     0
SMALL
USER_CHARGES
@<TRIPOS>ATOM
1      C1     -0.0985    1.3509    0.2822 C.3      1 ZINC000008551261   -0.1500
2      C2     -0.1133   -0.1556    0.0155 C.3      1 ZINC000008551261   -0.1000
3      C3      0.5901   -0.8836    1.1627 C.3      1 ZINC000008551261   -0.1300
4      C4     -1.5606   -0.6414   -0.0855 C.3      1 ZINC000008551261    0.1400
5      O5     -2.2415   -0.3681    1.1407 O.3      1 ZINC000008551261   -0.7600
6      P6     -3.7866   -0.7464    1.3890 P.3      1 ZINC000008551261    2.2900
7      O7     -4.6557   -0.1184    0.2767 O.co2    1 ZINC000008551261   -1.1000
8      O8     -3.9509   -2.2825    1.3654 O.co2    1 ZINC000008551261   -1.1100
9      O9     -4.2548   -0.1785    2.8209 O.3      1 ZINC000008551261   -1.0900
10     P10    -5.6875    0.0547    3.5174 P.3      1 ZINC000008551261    2.2900
11     O11    -6.6844    0.6047    2.4731 O.co2    1 ZINC000008551261   -1.1000
12     O12    -6.2135   -1.2867    4.0750 O.co2    1 ZINC000008551261   -1.1000
13     O13    -5.5331    1.1127    4.7211 O.3      1 ZINC000008551261   -0.7600
14     C14    -6.6453    1.6085    5.4689 C.3      1 ZINC000008551261    0.1400
15     C15    -6.1483    2.5907    6.5316 C.3      1 ZINC000008551261    0.0900
16     H16    -5.3807    2.1241    7.1491 H        1 ZINC000008551261    0.1000
17     O17    -5.6334    3.7875    5.9084 O.3      1 ZINC000008551261   -0.3400
18     C18    -5.6655    4.7977    6.9401 C.3      1 ZINC000008551261    0.3100
19     H19    -4.8245    4.6707    7.6218 H        1 ZINC000008551261    0.1200
20     N20    -5.6403    6.1359    6.3445 N.pl3    1 ZINC000008551261   -0.4700
21     C21    -6.0404    6.4653    5.0836 C.2      1 ZINC000008551261    0.2800
22     N22    -5.8814    7.7417    4.8859 N.2      1 ZINC000008551261   -0.4700
23     C23    -5.3706    8.3110    6.0040 C.ar     1 ZINC000008551261   -0.1100
24     C24    -5.0011    9.6170    6.3675 C.ar     1 ZINC000008551261    0.5000
25     N25    -5.1372   10.6657    5.4748 N.pl3    1 ZINC000008551261   -0.8200
26     N26    -4.5183    9.8219    7.5887 N.ar     1 ZINC000008551261   -0.6000
27     C27    -4.3854    8.8274    8.4472 C.ar     1 ZINC000008551261    0.3500
28     N28    -4.7178    7.5886    8.1506 N.ar     1 ZINC000008551261   -0.5400
29     C29    -5.2153    7.2885    6.9554 C.ar     1 ZINC000008551261    0.3100
30     C30    -6.9997    4.5617    7.6821 C.3      1 ZINC000008551261    0.0400
31     H31    -7.7809    5.2049    7.2771 H        1 ZINC000008551261    0.0800
32     O32    -6.8406    4.7912    9.0836 O.3      1 ZINC000008551261   -0.5300
33     C33    -7.3241    3.0741    7.4091 C.3      1 ZINC000008551261    0.0500
34     H34    -8.2659    2.9817    6.8681 H        1 ZINC000008551261    0.0900
35     O35    -7.3778    2.3403    8.6341 O.3      1 ZINC000008551261   -0.5300
36     C36     0.6157   -0.4483   -1.2974 C.3      1 ZINC000008551261    0.1100
37     H37     1.6142   -0.0124   -1.2635 H        1 ZINC000008551261    0.1200
38     O38     0.7190   -1.8618   -1.4801 O.3      1 ZINC000008551261   -0.5400
39     C39    -0.1555    0.1515   -2.4448 C.2      1 ZINC000008551261    0.4900
40     O40    -0.7013   -0.5707   -3.2519 O.2      1 ZINC000008551261   -0.5200
41     N41    -0.2388    1.4905   -2.5740 N.am     1 ZINC000008551261   -0.7300
42     C42    -1.0675    2.0742   -3.6317 C.3      1 ZINC000008551261    0.1300
43     C43    -0.9878    3.6004   -3.5583 C.3      1 ZINC000008551261   -0.1500
44     C44    -1.8403    4.2008   -4.6463 C.2      1 ZINC000008551261    0.5200
45     O45    -2.4515    3.4791   -5.4056 O.2      1 ZINC000008551261   -0.5200
46     N46    -1.9236    5.5398   -4.7755 N.am     1 ZINC000008551261   -0.7300
47     C47    -2.7523    6.1235   -5.8332 C.3      1 ZINC000008551261    0.1300
48     C48    -2.6726    7.6497   -5.7598 C.3      1 ZINC000008551261   -0.0900
49     S49    -3.6988    8.3724   -7.0694 S.3      1 ZINC000008551261   -0.2200
50     H50     0.9273    1.7171    0.2410 H        1 ZINC000008551261    0.0500
51     H51    -0.6966    1.8597   -0.4738 H        1 ZINC000008551261    0.0600
52     H52    -0.5157    1.5492    1.2695 H        1 ZINC000008551261    0.0800
53     H53     0.0362   -0.7245    2.0879 H        1 ZINC000008551261    0.0700
54     H54     0.6331   -1.9505    0.9439 H        1 ZINC000008551261    0.0600
55     H55     1.6022   -0.4943    1.2737 H        1 ZINC000008551261    0.0500
56     H56    -2.0617   -0.1228   -0.9028 H        1 ZINC000008551261    0.0500
57     H57    -1.5712   -1.7147   -0.2755 H        1 ZINC000008551261    0.0500
58     H58    -7.3362    2.1185    4.7976 H        1 ZINC000008551261    0.0700
59     H59    -7.1569    0.7770    5.9537 H        1 ZINC000008551261    0.0800
60     H60    -6.4312    5.7695    4.3559 H        1 ZINC000008551261    0.2300
61     H61    -5.4912   10.5036    4.5864 H        1 ZINC000008551261    0.4200
62     H62    -4.8786   11.5629    5.7376 H        1 ZINC000008551261    0.4100
63     H63    -3.9887    9.0381    9.4294 H        1 ZINC000008551261    0.2000
64     H64    -7.6482    4.6572    9.5982 H        1 ZINC000008551261    0.3800
65     H65    -8.0621    2.6451    9.2455 H        1 ZINC000008551261    0.3800
66     H66    -0.1335   -2.3166   -1.5195 H        1 ZINC000008551261    0.3900
67     H67     0.2500    2.0677   -1.9666 H        1 ZINC000008551261    0.4000
68     H68    -0.7064    1.7378   -4.6035 H        1 ZINC000008551261    0.0800
69     H69    -2.1021    1.7576   -3.4990 H        1 ZINC000008551261    0.0800
70     H70    -1.3490    3.9367   -2.5864 H        1 ZINC000008551261    0.1100
71     H71     0.0467    3.9170   -3.6909 H        1 ZINC000008551261    0.1000
72     H72    -1.4348    6.1170   -4.1681 H        1 ZINC000008551261    0.4000
73     H73    -2.3912    5.7871   -6.8050 H        1 ZINC000008551261    0.0800
74     H74    -3.7869    5.8069   -5.7005 H        1 ZINC000008551261    0.0800
75     H75    -3.0338    7.9860   -4.7879 H        1 ZINC000008551261    0.0900
76     H76    -1.6381    7.9663   -5.8924 H        1 ZINC000008551261    0.0900
77     H77    -3.5354    9.6949   -6.8866 H        1 ZINC000008551261    0.0900
@<TRIPOS>BOND
1     1     2     1
2     1     50    1
3     1     51    1
4     1     52    1
5     2     3     1
6     2     4     1
7     2     36    1
8     3     53    1
9     3     54    1
10    3     55    1
11    4     5     1
12    4     56    1
13    4     57    1
14    5     6     1
15    6     7     ar
16    6     8     ar
17    6     9     1
18    9     10    1
19    10    11    ar
20    10    12    ar
21    10    13    1
22    13    14    1
23    14    15    1
24    14    58    1
25    14    59    1
26    15    16    1
27    15    33    1
28    15    17    1
29    17    18    1
30    18    19    1
31    18    20    1
32    18    30    1
33    20    29    1
34    20    21    1
35    21    22    2
36    21    60    1
37    22    23    1
38    23    29    ar
39    23    24    ar
40    24    25    1
41    24    26    ar
42    25    61    1
43    25    62    1
44    26    27    ar
45    27    28    ar
46    27    63    1
47    28    29    ar
48    30    31    1
49    30    32    1
50    30    33    1
51    32    64    1
52    33    34    1
53    33    35    1
54    35    65    1
55    36    37    1
56    36    38    1
57    36    39    1
58    38    66    1
59    39    40    2
60    39    41    am
61    41    42    1
62    41    67    1
63    42    43    1
64    42    68    1
65    42    69    1
66    43    44    1
67    43    70    1
68    43    71    1
69    44    45    2
70    44    46    am
71    46    47    1
72    46    72    1
73    47    48    1
74    47    73    1
75    47    74    1
76    48    49    1
77    48    75    1
78    48    76    1
79    49    77    1
@<TRIPOS>SUBSTRUCTURE
1   ZINC000008551261 1     RESIDUE    1   A     ZIN   1
@<TRIPOS>MOLECULE
ZINC000008551095
85    87    1     0     0
SMALL
USER_CHARGES
@<TRIPOS>ATOM
1      C1    -14.7958   -5.7241   -1.5518 C.3      1 ZINC000008551095   -0.1800
2      C2    -13.6574   -6.7005   -1.4045 C.2      1 ZINC000008551095    0.3300
3      O3    -13.8803   -7.8929   -1.3792 O.2      1 ZINC000008551095   -0.4500
4      S4    -12.0496   -6.1272   -1.2726 S.3      1 ZINC000008551095   -0.1200
5      C5    -11.1661   -7.7002   -1.1264 C.3      1 ZINC000008551095   -0.1200
6      C6     -9.6657   -7.4319   -0.9929 C.3      1 ZINC000008551095    0.1300
7      N7     -8.9506   -8.7050   -0.8746 N.am     1 ZINC000008551095   -0.7300
8      C8     -7.6091   -8.7149   -0.7455 C.2      1 ZINC000008551095    0.5200
9      O9     -6.9939   -7.6698   -0.7273 O.2      1 ZINC000008551095   -0.5300
10     C10    -6.8734  -10.0245   -0.6238 C.3      1 ZINC000008551095   -0.1500
11     C11    -5.3731   -9.7562   -0.4903 C.3      1 ZINC000008551095    0.1400
12     N12    -4.6580  -11.0293   -0.3720 N.am     1 ZINC000008551095   -0.7400
13     C13    -3.3164  -11.0392   -0.2429 C.2      1 ZINC000008551095    0.5000
14     O14    -2.6923  -10.0020   -0.3179 O.2      1 ZINC000008551095   -0.5300
15     C15    -2.5919  -12.3391   -0.0053 C.3      1 ZINC000008551095    0.1000
16     H16    -1.7484  -12.4156   -0.6914 H        1 ZINC000008551095    0.1400
17     O17    -3.4869  -13.4308   -0.2271 O.3      1 ZINC000008551095   -0.5500
18     C18    -2.0820  -12.3826    1.4366 C.3      1 ZINC000008551095   -0.0900
19     C19    -1.0129  -11.3057    1.6322 C.3      1 ZINC000008551095   -0.1400
20     C20    -3.2453  -12.1266    2.3969 C.3      1 ZINC000008551095   -0.1400
21     C21    -1.4779  -13.7588    1.7226 C.3      1 ZINC000008551095    0.1500
22     O22    -1.0016  -13.7995    3.0693 O.3      1 ZINC000008551095   -0.7700
23     P23    -0.3030  -15.0991    3.7136 P.3      1 ZINC000008551095    2.3000
24     O24    -1.2423  -16.3165    3.5631 O.co2    1 ZINC000008551095   -1.1100
25     O25     1.0289  -15.3829    2.9838 O.co2    1 ZINC000008551095   -1.1100
26     O26    -0.0136  -14.8343    5.2750 O.3      1 ZINC000008551095   -1.0900
27     P27     0.3614  -15.7842    6.5197 P.3      1 ZINC000008551095    2.2900
28     O28     1.4570  -16.7858    6.0914 O.co2    1 ZINC000008551095   -1.1000
29     O29    -0.8959  -16.5589    6.9734 O.co2    1 ZINC000008551095   -1.1100
30     O30     0.9050  -14.8828    7.7380 O.3      1 ZINC000008551095   -0.7700
31     C31     1.4176  -15.4398    8.9500 C.3      1 ZINC000008551095    0.1400
32     C32     1.8453  -14.3105    9.8895 C.3      1 ZINC000008551095    0.0700
33     H33     2.5450  -13.6435    9.3859 H        1 ZINC000008551095    0.1000
34     O34     0.6908  -13.5743   10.3488 O.3      1 ZINC000008551095   -0.3500
35     C35     1.1212  -12.9046   11.5538 C.3      1 ZINC000008551095    0.2600
36     H36     1.7108  -12.0216   11.3072 H        1 ZINC000008551095    0.1200
37     N37    -0.0359  -12.5320   12.3714 N.pl3    1 ZINC000008551095   -0.4500
38     C38    -1.2653  -13.1204   12.3448 C.2      1 ZINC000008551095    0.2900
39     N39    -2.0551  -12.5390   13.2003 N.2      1 ZINC000008551095   -0.4800
40     C40    -1.3847  -11.5434   13.8285 C.ar     1 ZINC000008551095   -0.1000
41     C41    -1.7132  -10.6027   14.8192 C.ar     1 ZINC000008551095    0.5000
42     N42    -2.9810  -10.5712   15.3731 N.pl3    1 ZINC000008551095   -0.8300
43     N43    -0.7778   -9.7443   15.2124 N.ar     1 ZINC000008551095   -0.6000
44     C44     0.4347   -9.7673   14.6899 C.ar     1 ZINC000008551095    0.3400
45     N45     0.7870  -10.6298   13.7598 N.ar     1 ZINC000008551095   -0.5400
46     C46    -0.0793  -11.5308   13.3084 C.ar     1 ZINC000008551095    0.3000
47     C47     1.9928  -13.9440   12.2931 C.3      1 ZINC000008551095    0.0600
48     H48     1.3971  -14.4916   13.0234 H        1 ZINC000008551095    0.0700
49     O49     3.1011  -13.3055   12.9304 O.3      1 ZINC000008551095   -0.5000
50     C50     2.4827  -14.8901   11.1717 C.3      1 ZINC000008551095    0.1500
51     H51     2.1286  -15.9059   11.3472 H        1 ZINC000008551095    0.0800
52     O52     3.9089  -14.8665   11.0843 O.3      1 ZINC000008551095   -0.7200
53     P53     4.8200  -16.1824   11.2585 P.3      1 ZINC000008551095    2.1200
54     O54     4.4883  -16.8698   12.6266 O.co2    1 ZINC000008551095   -1.1900
55     O55     4.5251  -17.1805   10.0875 O.co2    1 ZINC000008551095   -1.1700
56     O56     6.3331  -15.7774   11.2308 O.co2    1 ZINC000008551095   -1.1700
57     H57   -15.7364   -6.2705   -1.6207 H        1 ZINC000008551095    0.0900
58     H58   -14.8221   -5.0632   -0.6854 H        1 ZINC000008551095    0.1000
59     H59   -14.6522   -5.1324   -2.4559 H        1 ZINC000008551095    0.1000
60     H60   -11.5194   -8.2348   -0.2447 H        1 ZINC000008551095    0.1000
61     H61   -11.3496   -8.3040   -2.0151 H        1 ZINC000008551095    0.1000
62     H62    -9.3124   -6.8973   -1.8747 H        1 ZINC000008551095    0.0800
63     H63    -9.4822   -6.8281   -0.1042 H        1 ZINC000008551095    0.0800
64     H64    -9.4426   -9.5408   -0.8891 H        1 ZINC000008551095    0.4000
65     H65    -7.2268  -10.5591    0.2580 H        1 ZINC000008551095    0.1100
66     H66    -7.0569  -10.6283   -1.5125 H        1 ZINC000008551095    0.1000
67     H67    -5.0197   -9.2216   -1.3720 H        1 ZINC000008551095    0.0700
68     H68    -5.1896   -9.1524    0.3984 H        1 ZINC000008551095    0.0800
69     H69    -5.1500  -11.8651   -0.3865 H        1 ZINC000008551095    0.4000
70     H70    -4.2627  -13.4269    0.3501 H        1 ZINC000008551095    0.3700
71     H71    -1.4618  -10.3206    1.5047 H        1 ZINC000008551095    0.0600
72     H72    -0.5943  -11.3872    2.6353 H        1 ZINC000008551095    0.0800
73     H73    -0.2208  -11.4421    0.8958 H        1 ZINC000008551095    0.0500
74     H74    -4.0069  -12.8938    2.2576 H        1 ZINC000008551095    0.0500
75     H75    -2.8820  -12.1576    3.4241 H        1 ZINC000008551095    0.0800
76     H76    -3.6757  -11.1462    2.1931 H        1 ZINC000008551095    0.0400
77     H77    -2.2395  -14.5260    1.5833 H        1 ZINC000008551095    0.0600
78     H78    -0.6491  -13.9412    1.0385 H        1 ZINC000008551095    0.0500
79     H79     0.6439  -16.0387    9.4304 H        1 ZINC000008551095    0.0600
80     H80     2.2777  -16.0704    8.7248 H        1 ZINC000008551095    0.1000
81     H81    -1.5431  -13.9468   11.7074 H        1 ZINC000008551095    0.2300
82     H82    -3.6551  -11.2032   15.0780 H        1 ZINC000008551095    0.4200
83     H83    -3.1956   -9.9170   16.0564 H        1 ZINC000008551095    0.4000
84     H84     1.1645   -9.0516   15.0384 H        1 ZINC000008551095    0.2000
85     H85     2.8486  -12.6569   13.6017 H        1 ZINC000008551095    0.3500
@<TRIPOS>BOND
1     1     2     1
2     1     57    1
3     1     58    1
4     1     59    1
5     2     3     2
6     2     4     1
7     4     5     1
8     5     6     1
9     5     60    1
10    5     61    1
11    6     7     1
12    6     62    1
13    6     63    1
14    7     8     am
15    7     64    1
16    8     9     2
17    8     10    1
18    10    11    1
19    10    65    1
20    10    66    1
21    11    12    1
22    11    67    1
23    11    68    1
24    12    13    am
25    12    69    1
26    13    14    2
27    13    15    1
28    15    16    1
29    15    17    1
30    15    18    1
31    17    70    1
32    18    19    1
33    18    20    1
34    18    21    1
35    19    71    1
36    19    72    1
37    19    73    1
38    20    74    1
39    20    75    1
40    20    76    1
41    21    22    1
42    21    77    1
43    21    78    1
44    22    23    1
45    23    24    ar
46    23    25    ar
47    23    26    1
48    26    27    1
49    27    28    ar
50    27    29    ar
51    27    30    1
52    30    31    1
53    31    32    1
54    31    79    1
55    31    80    1
56    32    33    1
57    32    50    1
58    32    34    1
59    34    35    1
60    35    36    1
61    35    37    1
62    35    47    1
63    37    46    1
64    37    38    1
65    38    39    2
66    38    81    1
67    39    40    1
68    40    46    ar
69    40    41    ar
70    41    42    1
71    41    43    ar
72    42    82    1
73    42    83    1
74    43    44    ar
75    44    45    ar
76    44    84    1
77    45    46    ar
78    47    48    1
79    47    49    1
80    47    50    1
81    49    85    1
82    50    51    1
83    50    52    1
84    52    53    1
85    53    54    ar
86    53    55    ar
87    53    56    ar
@<TRIPOS>SUBSTRUCTURE
1   ZINC000008551095 1     RESIDUE    1   A     ZIN   1
@<TRIPOS>MOLECULE
ZINC000008551494
94    96    1     0     0
SMALL
USER_CHARGES
@<TRIPOS>ATOM
1      C1      8.0478   -5.2327   17.6195 C.3      1 ZINC000008551494   -0.1600
2      C2      8.8867   -4.1537   16.9319 C.3      1 ZINC000008551494   -0.0800
3      C3     10.3243   -4.6516   16.7696 C.3      1 ZINC000008551494   -0.1500
4      C4      8.2944   -3.8478   15.5547 C.3      1 ZINC000008551494   -0.1400
5      C5      6.9243   -3.2424   15.7204 C.2      1 ZINC000008551494    0.3300
6      O6      6.4665   -3.0723   16.8310 O.2      1 ZINC000008551494   -0.4400
7      S7      6.0139   -2.7947   14.3414 S.3      1 ZINC000008551494   -0.1200
8      C8      4.5228   -2.1548   15.1434 C.3      1 ZINC000008551494   -0.1200
9      C9      3.5332   -1.6813   14.0769 C.3      1 ZINC000008551494    0.1300
10     N10     2.3263   -1.1634   14.7260 N.am     1 ZINC000008551494   -0.7300
11     C11     1.3104   -0.6880   13.9787 C.2      1 ZINC000008551494    0.5200
12     O12     1.3954   -0.6889   12.7689 O.2      1 ZINC000008551494   -0.5300
13     C13     0.0689   -0.1552   14.6465 C.3      1 ZINC000008551494   -0.1500
14     C14    -0.9206    0.3182   13.5799 C.3      1 ZINC000008551494    0.1400
15     N15    -2.1275    0.8361   14.2291 N.am     1 ZINC000008551494   -0.7400
16     C16    -3.1434    1.3115   13.4818 C.2      1 ZINC000008551494    0.5000
17     O17    -3.0224    1.3972   12.2781 O.2      1 ZINC000008551494   -0.5300
18     C18    -4.4297    1.7367   14.1420 C.3      1 ZINC000008551494    0.1000
19     H19    -4.7230    2.7176   13.7681 H        1 ZINC000008551494    0.1400
20     O20    -4.2396    1.8034   15.5567 O.3      1 ZINC000008551494   -0.5500
21     C21    -5.5274    0.7199   13.8223 C.3      1 ZINC000008551494   -0.0900
22     C22    -5.8347    0.7555   12.3239 C.3      1 ZINC000008551494   -0.1400
23     C23    -5.0537   -0.6816   14.2126 C.3      1 ZINC000008551494   -0.1400
24     C24    -6.7913    1.0691   14.6106 C.3      1 ZINC000008551494    0.1500
25     O25    -7.8165    0.1195   14.3120 O.3      1 ZINC000008551494   -0.7700
26     P26    -9.2862    0.1809   14.9664 P.3      1 ZINC000008551494    2.3000
27     O27    -9.1639    0.1969   16.5065 O.co2    1 ZINC000008551494   -1.1100
28     O28   -10.0073    1.4628   14.4936 O.co2    1 ZINC000008551494   -1.1100
29     O29   -10.1319   -1.1104   14.5086 O.3      1 ZINC000008551494   -1.0900
30     P30   -11.4945   -1.7954   15.0245 P.3      1 ZINC000008551494    2.2900
31     O31   -12.5613   -0.7036   15.2634 O.co2    1 ZINC000008551494   -1.1000
32     O32   -11.2240   -2.5489   16.3459 O.co2    1 ZINC000008551494   -1.1100
33     O33   -12.0274   -2.8327   13.9146 O.3      1 ZINC000008551494   -0.7700
34     C34   -13.2724   -3.5246   14.0300 C.3      1 ZINC000008551494    0.1400
35     C35   -13.4699   -4.4262   12.8097 C.3      1 ZINC000008551494    0.0700
36     H36   -13.3766   -3.8464   11.8914 H        1 ZINC000008551494    0.1000
37     O37   -12.5110   -5.5061   12.8221 O.3      1 ZINC000008551494   -0.3500
38     C38   -13.0746   -6.5251   11.9678 C.3      1 ZINC000008551494    0.2600
39     H39   -12.9220   -6.2685   10.9195 H        1 ZINC000008551494    0.1200
40     N40   -12.4755   -7.8285   12.2652 N.pl3    1 ZINC000008551494   -0.4500
41     C41   -11.8920   -8.1989   13.4402 C.2      1 ZINC000008551494    0.2900
42     N42   -11.4655   -9.4256   13.3576 N.2      1 ZINC000008551494   -0.4800
43     C43   -11.7473   -9.9192   12.1279 C.ar     1 ZINC000008551494   -0.1000
44     C44   -11.5319  -11.1491   11.4835 C.ar     1 ZINC000008551494    0.5000
45     N45   -10.8961  -12.1895   12.1381 N.pl3    1 ZINC000008551494   -0.8300
46     N46   -11.9534  -11.2902   10.2310 N.ar     1 ZINC000008551494   -0.6000
47     C47   -12.5613  -10.3031    9.5988 C.ar     1 ZINC000008551494    0.3400
48     N48   -12.7841   -9.1343   10.1620 N.ar     1 ZINC000008551494   -0.5400
49     C49   -12.4040   -8.9023   11.4141 C.ar     1 ZINC000008551494    0.3000
50     C50   -14.5820   -6.5339   12.3054 C.3      1 ZINC000008551494    0.0600
51     H51   -14.8010   -7.2938   13.0556 H        1 ZINC000008551494    0.0700
52     O52   -15.3579   -6.7578   11.1265 O.3      1 ZINC000008551494   -0.5000
53     C53   -14.8493   -5.1190   12.8705 C.3      1 ZINC000008551494    0.1500
54     H54   -15.1998   -5.1792   13.9009 H        1 ZINC000008551494    0.0800
55     O55   -15.8004   -4.4271   12.0590 O.3      1 ZINC000008551494   -0.7200
56     P56   -17.1950   -3.8618   12.6314 P.3      1 ZINC000008551494    2.1200
57     O57   -17.9876   -5.0255   13.3185 O.co2    1 ZINC000008551494   -1.1900
58     O58   -16.9100   -2.7335   13.6803 O.co2    1 ZINC000008551494   -1.1700
59     O59   -18.0445   -3.2763   11.4524 O.co2    1 ZINC000008551494   -1.1700
60     H60     8.0525   -6.1382   17.0127 H        1 ZINC000008551494    0.0500
61     H61     8.4698   -5.4507   18.6006 H        1 ZINC000008551494    0.0600
62     H62     7.0237   -4.8781   17.7352 H        1 ZINC000008551494    0.0700
63     H63     8.8821   -3.2482   17.5387 H        1 ZINC000008551494    0.0800
64     H64    10.3289   -5.5570   16.1628 H        1 ZINC000008551494    0.0600
65     H65    10.9219   -3.8828   16.2797 H        1 ZINC000008551494    0.0600
66     H66    10.7462   -4.8695   17.7507 H        1 ZINC000008551494    0.0600
67     H67     8.9410   -3.1451   15.0291 H        1 ZINC000008551494    0.1000
68     H68     8.2169   -4.7703   14.9795 H        1 ZINC000008551494    0.1100
69     H69     4.0642   -2.9434   15.7400 H        1 ZINC000008551494    0.1000
70     H70     4.7883   -1.3181   15.7896 H        1 ZINC000008551494    0.1000
71     H71     3.9918   -0.8927   13.4803 H        1 ZINC000008551494    0.0800
72     H72     3.2677   -2.5180   13.4306 H        1 ZINC000008551494    0.0800
73     H73     2.2584   -1.1627   15.6936 H        1 ZINC000008551494    0.4000
74     H74    -0.3896   -0.9439   15.2431 H        1 ZINC000008551494    0.1100
75     H75     0.3345    0.6814   15.2927 H        1 ZINC000008551494    0.1000
76     H76    -0.4621    1.1068   12.9834 H        1 ZINC000008551494    0.0700
77     H77    -1.1862   -0.5184   12.9337 H        1 ZINC000008551494    0.0800
78     H78    -2.1955    0.8368   15.1967 H        1 ZINC000008551494    0.4000
79     H79    -3.9767    0.9640   15.9583 H        1 ZINC000008551494    0.3700
80     H80    -4.9567    0.4314   11.7651 H        1 ZINC000008551494    0.0600
81     H81    -6.6693    0.0883   12.1083 H        1 ZINC000008551494    0.0800
82     H82    -6.0971    1.7720   12.0308 H        1 ZINC000008551494    0.0500
83     H83    -4.8348   -0.7069   15.2801 H        1 ZINC000008551494    0.0500
84     H84    -5.8357   -1.4059   13.9849 H        1 ZINC000008551494    0.0800
85     H85    -4.1533   -0.9303   13.6510 H        1 ZINC000008551494    0.0400
86     H86    -6.5723    1.0438   15.6781 H        1 ZINC000008551494    0.0600
87     H87    -7.1287    2.0676   14.3325 H        1 ZINC000008551494    0.0500
88     H88   -13.2675   -4.1330   14.9343 H        1 ZINC000008551494    0.0600
89     H89   -14.0863   -2.8015   14.0830 H        1 ZINC000008551494    0.1000
90     H90   -11.7972   -7.5672   14.3111 H        1 ZINC000008551494    0.2300
91     H91   -10.5933  -12.0744   13.0524 H        1 ZINC000008551494    0.4200
92     H92   -10.7532  -13.0339   11.6825 H        1 ZINC000008551494    0.4000
93     H93   -12.8877  -10.4605    8.5814 H        1 ZINC000008551494    0.2000
94     H94   -15.1851   -7.6069   10.6973 H        1 ZINC000008551494    0.3500
@<TRIPOS>BOND
1     1     2     1
2     1     60    1
3     1     61    1
4     1     62    1
5     2     3     1
6     2     4     1
7     2     63    1
8     3     64    1
9     3     65    1
10    3     66    1
11    4     5     1
12    4     67    1
13    4     68    1
14    5     6     2
15    5     7     1
16    7     8     1
17    8     9     1
18    8     69    1
19    8     70    1
20    9     10    1
21    9     71    1
22    9     72    1
23    10    11    am
24    10    73    1
25    11    12    2
26    11    13    1
27    13    14    1
28    13    74    1
29    13    75    1
30    14    15    1
31    14    76    1
32    14    77    1
33    15    16    am
34    15    78    1
35    16    17    2
36    16    18    1
37    18    19    1
38    18    20    1
39    18    21    1
40    20    79    1
41    21    22    1
42    21    23    1
43    21    24    1
44    22    80    1
45    22    81    1
46    22    82    1
47    23    83    1
48    23    84    1
49    23    85    1
50    24    25    1
51    24    86    1
52    24    87    1
53    25    26    1
54    26    27    ar
55    26    28    ar
56    26    29    1
57    29    30    1
58    30    31    ar
59    30    32    ar
60    30    33    1
61    33    34    1
62    34    35    1
63    34    88    1
64    34    89    1
65    35    36    1
66    35    53    1
67    35    37    1
68    37    38    1
69    38    39    1
70    38    40    1
71    38    50    1
72    40    49    1
73    40    41    1
74    41    42    2
75    41    90    1
76    42    43    1
77    43    49    ar
78    43    44    ar
79    44    45    1
80    44    46    ar
81    45    91    1
82    45    92    1
83    46    47    ar
84    47    48    ar
85    47    93    1
86    48    49    ar
87    50    51    1
88    50    52    1
89    50    53    1
90    52    94    1
91    53    54    1
92    53    55    1
93    55    56    1
94    56    57    ar
95    56    58    ar
96    56    59    ar
@<TRIPOS>SUBSTRUCTURE
1   ZINC000008551494 1     RESIDUE    1   A     ZIN   1
@<TRIPOS>MOLECULE
ZINC000008551116
90    92    1     0     0
SMALL
USER_CHARGES
@<TRIPOS>ATOM
1      C1     -0.0985    1.3509    0.2822 C.3      1 ZINC000008551116   -0.1500
2      C2     -0.1133   -0.1556    0.0155 C.3      1 ZINC000008551116   -0.1000
3      C3      0.5901   -0.8836    1.1627 C.3      1 ZINC000008551116   -0.1300
4      C4     -1.5606   -0.6414   -0.0855 C.3      1 ZINC000008551116    0.1400
5      O5     -2.2415   -0.3681    1.1407 O.3      1 ZINC000008551116   -0.7600
6      P6     -3.7866   -0.7464    1.3890 P.3      1 ZINC000008551116    2.2900
7      O7     -4.6557   -0.1184    0.2767 O.co2    1 ZINC000008551116   -1.1000
8      O8     -3.9509   -2.2825    1.3654 O.co2    1 ZINC000008551116   -1.1100
9      O9     -4.2548   -0.1785    2.8209 O.3      1 ZINC000008551116   -1.0900
10     P10    -5.6875    0.0547    3.5174 P.3      1 ZINC000008551116    2.2900
11     O11    -6.6844    0.6047    2.4731 O.co2    1 ZINC000008551116   -1.1000
12     O12    -6.2135   -1.2867    4.0750 O.co2    1 ZINC000008551116   -1.1000
13     O13    -5.5331    1.1127    4.7211 O.3      1 ZINC000008551116   -0.7700
14     C14    -6.6453    1.6085    5.4689 C.3      1 ZINC000008551116    0.1400
15     C15    -6.1483    2.5907    6.5316 C.3      1 ZINC000008551116    0.0700
16     H16    -5.3807    2.1241    7.1491 H        1 ZINC000008551116    0.1000
17     O17    -5.6334    3.7875    5.9084 O.3      1 ZINC000008551116   -0.3500
18     C18    -5.6655    4.7977    6.9401 C.3      1 ZINC000008551116    0.2600
19     H19    -4.8245    4.6707    7.6218 H        1 ZINC000008551116    0.1200
20     N20    -5.6403    6.1359    6.3445 N.pl3    1 ZINC000008551116   -0.4500
21     C21    -6.0404    6.4653    5.0836 C.2      1 ZINC000008551116    0.2900
22     N22    -5.8814    7.7417    4.8859 N.2      1 ZINC000008551116   -0.4800
23     C23    -5.3706    8.3110    6.0040 C.ar     1 ZINC000008551116   -0.1000
24     C24    -5.0011    9.6170    6.3675 C.ar     1 ZINC000008551116    0.5000
25     N25    -5.1372   10.6657    5.4748 N.pl3    1 ZINC000008551116   -0.8300
26     N26    -4.5183    9.8219    7.5887 N.ar     1 ZINC000008551116   -0.6000
27     C27    -4.3854    8.8274    8.4472 C.ar     1 ZINC000008551116    0.3400
28     N28    -4.7178    7.5886    8.1506 N.ar     1 ZINC000008551116   -0.5400
29     C29    -5.2153    7.2885    6.9554 C.ar     1 ZINC000008551116    0.2900
30     C30    -6.9997    4.5617    7.6821 C.3      1 ZINC000008551116    0.0600
31     H31    -7.7809    5.2049    7.2771 H        1 ZINC000008551116    0.0700
32     O32    -6.8406    4.7912    9.0836 O.3      1 ZINC000008551116   -0.5000
33     C33    -7.3241    3.0741    7.4091 C.3      1 ZINC000008551116    0.1500
34     H34    -8.2659    2.9817    6.8681 H        1 ZINC000008551116    0.0800
35     O35    -7.3778    2.3403    8.6341 O.3      1 ZINC000008551116   -0.7200
36     P36    -8.6839    1.5312    9.1151 P.3      1 ZINC000008551116    2.1200
37     O37    -9.9162    2.4982    9.1433 O.co2    1 ZINC000008551116   -1.1900
38     O38    -8.9658    0.3550    8.1193 O.co2    1 ZINC000008551116   -1.1700
39     O39    -8.4408    0.9530   10.5508 O.co2    1 ZINC000008551116   -1.1700
40     C40     0.6157   -0.4483   -1.2974 C.3      1 ZINC000008551116    0.1100
41     H41     1.6142   -0.0124   -1.2635 H        1 ZINC000008551116    0.1200
42     O42     0.7190   -1.8618   -1.4801 O.3      1 ZINC000008551116   -0.5400
43     C43    -0.1555    0.1515   -2.4448 C.2      1 ZINC000008551116    0.4900
44     O44    -0.7013   -0.5707   -3.2519 O.2      1 ZINC000008551116   -0.5300
45     N45    -0.2388    1.4905   -2.5740 N.am     1 ZINC000008551116   -0.7300
46     C46    -1.0675    2.0742   -3.6317 C.3      1 ZINC000008551116    0.1300
47     C47    -0.9878    3.6004   -3.5583 C.3      1 ZINC000008551116   -0.1500
48     C48    -1.8403    4.2008   -4.6463 C.2      1 ZINC000008551116    0.5200
49     O49    -2.4515    3.4791   -5.4056 O.2      1 ZINC000008551116   -0.5300
50     N50    -1.9236    5.5398   -4.7755 N.am     1 ZINC000008551116   -0.7300
51     C51    -2.7523    6.1235   -5.8332 C.3      1 ZINC000008551116    0.1400
52     C52    -2.6726    7.6497   -5.7598 C.3      1 ZINC000008551116   -0.1200
53     S53    -3.6965    8.3708   -7.0665 S.3      1 ZINC000008551116   -0.1400
54     C54    -3.4343   10.0356   -6.7650 C.2      1 ZINC000008551116    0.3300
55     O55    -2.7095   10.3805   -5.8552 O.2      1 ZINC000008551116   -0.4500
56     C56    -4.1038   11.0725   -7.6296 C.3      1 ZINC000008551116   -0.1200
57     C57    -3.7053   12.4700   -7.1510 C.3      1 ZINC000008551116   -0.1700
58     C58    -4.3748   13.5070   -8.0157 C.2      1 ZINC000008551116    0.4900
59     O59    -5.1032   13.1604   -8.9299 O.co2    1 ZINC000008551116   -0.7000
60     O60    -4.1881   14.6925   -7.8009 O.co2    1 ZINC000008551116   -0.7000
61     H61     0.9273    1.7171    0.2410 H        1 ZINC000008551116    0.0500
62     H62    -0.6966    1.8597   -0.4738 H        1 ZINC000008551116    0.0600
63     H63    -0.5157    1.5492    1.2695 H        1 ZINC000008551116    0.0800
64     H64     0.0362   -0.7245    2.0879 H        1 ZINC000008551116    0.0800
65     H65     0.6331   -1.9505    0.9439 H        1 ZINC000008551116    0.0600
66     H66     1.6022   -0.4943    1.2737 H        1 ZINC000008551116    0.0500
67     H67    -2.0617   -0.1228   -0.9028 H        1 ZINC000008551116    0.0500
68     H68    -1.5712   -1.7147   -0.2755 H        1 ZINC000008551116    0.0500
69     H69    -7.3362    2.1185    4.7976 H        1 ZINC000008551116    0.0600
70     H70    -7.1569    0.7770    5.9537 H        1 ZINC000008551116    0.1000
71     H71    -6.4312    5.7695    4.3559 H        1 ZINC000008551116    0.2300
72     H72    -5.4912   10.5036    4.5864 H        1 ZINC000008551116    0.4200
73     H73    -4.8786   11.5629    5.7376 H        1 ZINC000008551116    0.4000
74     H74    -3.9887    9.0381    9.4294 H        1 ZINC000008551116    0.2000
75     H75    -6.5780    5.6946    9.3069 H        1 ZINC000008551116    0.3500
76     H76    -0.1335   -2.3166   -1.5195 H        1 ZINC000008551116    0.3900
77     H77     0.2500    2.0677   -1.9666 H        1 ZINC000008551116    0.4000
78     H78    -0.7064    1.7378   -4.6035 H        1 ZINC000008551116    0.0700
79     H79    -2.1021    1.7576   -3.4990 H        1 ZINC000008551116    0.0900
80     H80    -1.3490    3.9367   -2.5864 H        1 ZINC000008551116    0.1100
81     H81     0.0467    3.9170   -3.6909 H        1 ZINC000008551116    0.1000
82     H82    -1.4348    6.1170   -4.1681 H        1 ZINC000008551116    0.4000
83     H83    -2.3912    5.7871   -6.8050 H        1 ZINC000008551116    0.0800
84     H84    -3.7869    5.8069   -5.7005 H        1 ZINC000008551116    0.0800
85     H85    -3.0338    7.9860   -4.7879 H        1 ZINC000008551116    0.1000
86     H86    -1.6381    7.9663   -5.8924 H        1 ZINC000008551116    0.1000
87     H87    -3.7900   10.9398   -8.6650 H        1 ZINC000008551116    0.1000
88     H88    -5.1857   10.9596   -7.5605 H        1 ZINC000008551116    0.1100
89     H89    -4.0191   12.6027   -6.1157 H        1 ZINC000008551116    0.0700
90     H90    -2.6234   12.5829   -7.2201 H        1 ZINC000008551116    0.0600
@<TRIPOS>BOND
1     1     2     1
2     1     61    1
3     1     62    1
4     1     63    1
5     2     3     1
6     2     4     1
7     2     40    1
8     3     64    1
9     3     65    1
10    3     66    1
11    4     5     1
12    4     67    1
13    4     68    1
14    5     6     1
15    6     7     ar
16    6     8     ar
17    6     9     1
18    9     10    1
19    10    11    ar
20    10    12    ar
21    10    13    1
22    13    14    1
23    14    15    1
24    14    69    1
25    14    70    1
26    15    16    1
27    15    33    1
28    15    17    1
29    17    18    1
30    18    19    1
31    18    20    1
32    18    30    1
33    20    29    1
34    20    21    1
35    21    22    2
36    21    71    1
37    22    23    1
38    23    29    ar
39    23    24    ar
40    24    25    1
41    24    26    ar
42    25    72    1
43    25    73    1
44    26    27    ar
45    27    28    ar
46    27    74    1
47    28    29    ar
48    30    31    1
49    30    32    1
50    30    33    1
51    32    75    1
52    33    34    1
53    33    35    1
54    35    36    1
55    36    37    ar
56    36    38    ar
57    36    39    ar
58    40    41    1
59    40    42    1
60    40    43    1
61    42    76    1
62    43    44    2
63    43    45    am
64    45    46    1
65    45    77    1
66    46    47    1
67    46    78    1
68    46    79    1
69    47    48    1
70    47    80    1
71    47    81    1
72    48    49    2
73    48    50    am
74    50    51    1
75    50    82    1
76    51    52    1
77    51    83    1
78    51    84    1
79    52    53    1
80    52    85    1
81    52    86    1
82    53    54    1
83    54    55    2
84    54    56    1
85    56    57    1
86    56    87    1
87    56    88    1
88    57    58    1
89    57    89    1
90    57    90    1
91    58    59    ar
92    58    60    ar
@<TRIPOS>SUBSTRUCTURE
1   ZINC000008551116 1     RESIDUE    1   A     ZIN   1
@<TRIPOS>MOLECULE
ZINC000008551493
94    96    1     0     0
SMALL
USER_CHARGES
@<TRIPOS>ATOM
1      C1      8.0847   -6.2098   15.6393 C.3      1 ZINC000008551493   -0.1600
2      C2      8.8677   -5.1945   14.8045 C.3      1 ZINC000008551493   -0.0900
3      C3     10.2239   -5.7887   14.4191 C.3      1 ZINC000008551493   -0.1500
4      C4      8.0788   -4.8597   13.5370 C.3      1 ZINC000008551493   -0.1400
5      C5      6.7966   -4.1627   13.9127 C.2      1 ZINC000008551493    0.3300
6      O6      6.5390   -3.9541   15.0799 O.2      1 ZINC000008551493   -0.4400
7      S7      5.7035   -3.6652   12.6927 S.3      1 ZINC000008551493   -0.1200
8      C8      4.4087   -2.9209   13.7153 C.3      1 ZINC000008551493   -0.1200
9      C9      3.2905   -2.3901   12.8159 C.3      1 ZINC000008551493    0.1400
10     N10     2.2425   -1.7878   13.6435 N.am     1 ZINC000008551493   -0.7300
11     C11     1.1509   -1.2509   13.0634 C.2      1 ZINC000008551493    0.5200
12     O12     1.0362   -1.2664   11.8561 O.2      1 ZINC000008551493   -0.5300
13     C13     0.0729   -0.6312   13.9148 C.3      1 ZINC000008551493   -0.1500
14     C14    -1.0453   -0.1004   13.0153 C.3      1 ZINC000008551493    0.1400
15     N15    -2.0933    0.5020   13.8430 N.am     1 ZINC000008551493   -0.7400
16     C16    -3.1849    1.0389   13.2628 C.2      1 ZINC000008551493    0.5000
17     O17    -3.2584    1.1055   12.0541 O.2      1 ZINC000008551493   -0.5300
18     C18    -4.3141    1.5564   14.1161 C.3      1 ZINC000008551493    0.1000
19     H19    -5.2513    1.1039   13.7919 H        1 ZINC000008551493    0.1400
20     O20    -4.0707    1.2202   15.4834 O.3      1 ZINC000008551493   -0.5500
21     C21    -4.4057    3.0770   13.9733 C.3      1 ZINC000008551493   -0.0900
22     C22    -3.0477    3.7024   14.2980 C.3      1 ZINC000008551493   -0.1400
23     C23    -4.8005    3.4316   12.5383 C.3      1 ZINC000008551493   -0.1400
24     C24    -5.4605    3.6175   14.9408 C.3      1 ZINC000008551493    0.1500
25     O25    -5.5461    5.0376   14.8075 O.3      1 ZINC000008551493   -0.7700
26     P26    -6.5574    5.9406   15.6759 P.3      1 ZINC000008551493    2.3000
27     O27    -7.9991    5.4143   15.4989 O.co2    1 ZINC000008551493   -1.1100
28     O28    -6.1618    5.8672   17.1676 O.co2    1 ZINC000008551493   -1.1100
29     O29    -6.4784    7.4684   15.1743 O.3      1 ZINC000008551493   -1.0900
30     P30    -7.4065    8.7660   15.3908 P.3      1 ZINC000008551493    2.2900
31     O31    -7.8047    8.8717   16.8798 O.co2    1 ZINC000008551493   -1.1000
32     O32    -8.6798    8.6388   14.5250 O.co2    1 ZINC000008551493   -1.1100
33     O33    -6.5928   10.0861   14.9579 O.3      1 ZINC000008551493   -0.7700
34     C34    -7.1066   11.4084   15.1299 C.3      1 ZINC000008551493    0.1400
35     C35    -6.0839   12.4237   14.6160 C.3      1 ZINC000008551493    0.0700
36     H36    -5.1184   12.2651   15.0964 H        1 ZINC000008551493    0.1000
37     O37    -5.9539   12.3242   13.1810 O.3      1 ZINC000008551493   -0.3500
38     C38    -5.3915   13.5865   12.7614 C.3      1 ZINC000008551493    0.2600
39     H39    -4.3195   13.6081   12.9573 H        1 ZINC000008551493    0.1200
40     N40    -5.6536   13.8136   11.3381 N.pl3    1 ZINC000008551493   -0.4500
41     C41    -6.6635   13.2635   10.6060 C.2      1 ZINC000008551493    0.2900
42     N42    -6.5992   13.6815    9.3753 N.2      1 ZINC000008551493   -0.4800
43     C43    -5.5472   14.5241    9.2396 C.ar     1 ZINC000008551493   -0.1000
44     C44    -5.0011   15.2594    8.1740 C.ar     1 ZINC000008551493    0.5000
45     N45    -5.5682   15.2059    6.9128 N.pl3    1 ZINC000008551493   -0.8300
46     N46    -3.9274   16.0078    8.4056 N.ar     1 ZINC000008551493   -0.6000
47     C47    -3.3798   16.0652    9.6058 C.ar     1 ZINC000008551493    0.3400
48     N48    -3.8566   15.3938   10.6329 N.ar     1 ZINC000008551493   -0.5400
49     C49    -4.9313   14.6237   10.4988 C.ar     1 ZINC000008551493    0.3000
50     C50    -6.1166   14.6465   13.6200 C.3      1 ZINC000008551493    0.0600
51     H51    -6.9731   15.0528   13.0822 H        1 ZINC000008551493    0.0700
52     O52    -5.2163   15.6931   13.9891 O.3      1 ZINC000008551493   -0.5000
53     C53    -6.5812   13.8639   14.8708 C.3      1 ZINC000008551493    0.1500
54     H54    -7.6681   13.8827   14.9511 H        1 ZINC000008551493    0.0800
55     O55    -5.9838   14.4053   16.0507 O.3      1 ZINC000008551493   -0.7200
56     P56    -6.8438   14.9778   17.2855 P.3      1 ZINC000008551493    2.1200
57     O57    -7.8346   16.0753   16.7674 O.co2    1 ZINC000008551493   -1.1900
58     O58    -7.6553   13.8099   17.9426 O.co2    1 ZINC000008551493   -1.1700
59     O59    -5.8784   15.6053   18.3478 O.co2    1 ZINC000008551493   -1.1700
60     H60     7.9310   -7.1180   15.0565 H        1 ZINC000008551493    0.0500
61     H61     8.6467   -6.4483   16.5423 H        1 ZINC000008551493    0.0600
62     H62     7.1185   -5.7864   15.9139 H        1 ZINC000008551493    0.0700
63     H63     9.0214   -4.2863   15.3873 H        1 ZINC000008551493    0.0800
64     H64    10.0702   -6.6969   13.8363 H        1 ZINC000008551493    0.0600
65     H65    10.7817   -5.0654   13.8244 H        1 ZINC000008551493    0.0600
66     H66    10.7859   -6.0272   15.3221 H        1 ZINC000008551493    0.0600
67     H67     8.6747   -4.2059   12.9002 H        1 ZINC000008551493    0.1100
68     H68     7.8483   -5.7793   12.9990 H        1 ZINC000008551493    0.1100
69     H69     4.0039   -3.6726   14.3929 H        1 ZINC000008551493    0.1000
70     H70     4.8303   -2.0992   14.2942 H        1 ZINC000008551493    0.1000
71     H71     3.6953   -1.6385   12.1382 H        1 ZINC000008551493    0.0800
72     H72     2.8689   -3.2119   12.2370 H        1 ZINC000008551493    0.0800
73     H73     2.3343   -1.7753   14.6091 H        1 ZINC000008551493    0.4000
74     H74    -0.3319   -1.3829   14.5924 H        1 ZINC000008551493    0.1000
75     H75     0.4945    0.1905   14.4936 H        1 ZINC000008551493    0.1100
76     H76    -0.6405    0.6513   12.3377 H        1 ZINC000008551493    0.0800
77     H77    -1.4669   -0.9221   12.4365 H        1 ZINC000008551493    0.0700
78     H78    -2.0015    0.5144   14.8086 H        1 ZINC000008551493    0.4000
79     H79    -3.2513    1.5901   15.8396 H        1 ZINC000008551493    0.3700
80     H80    -2.2962    3.3174   13.6087 H        1 ZINC000008551493    0.0400
81     H81    -3.1129    4.7857   14.1963 H        1 ZINC000008551493    0.0800
82     H82    -2.7664    3.4498   15.3203 H        1 ZINC000008551493    0.0500
83     H83    -5.7098    2.8945   12.2683 H        1 ZINC000008551493    0.0500
84     H84    -4.9771    4.5047   12.4647 H        1 ZINC000008551493    0.0800
85     H85    -3.9961    3.1483   11.8595 H        1 ZINC000008551493    0.0600
86     H86    -6.4280    3.1719   14.7095 H        1 ZINC000008551493    0.0500
87     H87    -5.1792    3.3648   15.9632 H        1 ZINC000008551493    0.0600
88     H88    -8.0356   11.5130   14.5694 H        1 ZINC000008551493    0.0600
89     H89    -7.2980   11.5891   16.1876 H        1 ZINC000008551493    0.1000
90     H90    -7.4068   12.5808   10.9906 H        1 ZINC000008551493    0.2300
91     H91    -6.3520   14.6563    6.7564 H        1 ZINC000008551493    0.4200
92     H92    -5.1820   15.7182    6.1852 H        1 ZINC000008551493    0.4000
93     H93    -2.5080   16.6861    9.7502 H        1 ZINC000008551493    0.2000
94     H94    -4.8479   16.1781   13.2380 H        1 ZINC000008551493    0.3500
@<TRIPOS>BOND
1     1     2     1
2     1     60    1
3     1     61    1
4     1     62    1
5     2     3     1
6     2     4     1
7     2     63    1
8     3     64    1
9     3     65    1
10    3     66    1
11    4     5     1
12    4     67    1
13    4     68    1
14    5     6     2
15    5     7     1
16    7     8     1
17    8     9     1
18    8     69    1
19    8     70    1
20    9     10    1
21    9     71    1
22    9     72    1
23    10    11    am
24    10    73    1
25    11    12    2
26    11    13    1
27    13    14    1
28    13    74    1
29    13    75    1
30    14    15    1
31    14    76    1
32    14    77    1
33    15    16    am
34    15    78    1
35    16    17    2
36    16    18    1
37    18    19    1
38    18    20    1
39    18    21    1
40    20    79    1
41    21    22    1
42    21    23    1
43    21    24    1
44    22    80    1
45    22    81    1
46    22    82    1
47    23    83    1
48    23    84    1
49    23    85    1
50    24    25    1
51    24    86    1
52    24    87    1
53    25    26    1
54    26    27    ar
55    26    28    ar
56    26    29    1
57    29    30    1
58    30    31    ar
59    30    32    ar
60    30    33    1
61    33    34    1
62    34    35    1
63    34    88    1
64    34    89    1
65    35    36    1
66    35    53    1
67    35    37    1
68    37    38    1
69    38    39    1
70    38    40    1
71    38    50    1
72    40    49    1
73    40    41    1
74    41    42    2
75    41    90    1
76    42    43    1
77    43    49    ar
78    43    44    ar
79    44    45    1
80    44    46    ar
81    45    91    1
82    45    92    1
83    46    47    ar
84    47    48    ar
85    47    93    1
86    48    49    ar
87    50    51    1
88    50    52    1
89    50    53    1
90    52    94    1
91    53    54    1
92    53    55    1
93    55    56    1
94    56    57    ar
95    56    58    ar
96    56    59    ar
@<TRIPOS>SUBSTRUCTURE
1   ZINC000008551493 1     RESIDUE    1   A     ZIN   1
@<TRIPOS>MOLECULE
ZINC000008551568
89    91    1     0     0
SMALL
USER_CHARGES
@<TRIPOS>ATOM
1      C1     -1.3738  -17.7695   -1.8569 C.2      1 ZINC000008551568   -0.0900
2      C2     -1.1350  -16.4665   -1.7402 C.2      1 ZINC000008551568   -0.1800
3      C3     -2.2791  -15.4859   -1.7607 C.3      1 ZINC000008551568   -0.1200
4      C4      0.2460  -15.9824   -1.5913 C.2      1 ZINC000008551568    0.3800
5      O5      1.1697  -16.7741   -1.5748 O.2      1 ZINC000008551568   -0.4500
6      S6      0.5625  -14.2560   -1.4367 S.3      1 ZINC000008551568   -0.1300
7      C7      2.3665  -14.2790   -1.2909 C.3      1 ZINC000008551568   -0.1200
8      C8      2.8844  -12.8470   -1.1418 C.3      1 ZINC000008551568    0.1400
9      N9      4.3446  -12.8656   -1.0239 N.am     1 ZINC000008551568   -0.7300
10     C10     5.0240  -11.7103   -0.8822 C.2      1 ZINC000008551568    0.5200
11     O11     4.4266  -10.6553   -0.8524 O.2      1 ZINC000008551568   -0.5300
12     C12     6.5260  -11.7295   -0.7608 C.3      1 ZINC000008551568   -0.1500
13     C13     7.0439  -10.2975   -0.6118 C.3      1 ZINC000008551568    0.1400
14     N14     8.5040  -10.3162   -0.4938 N.am     1 ZINC000008551568   -0.7400
15     C15     9.1834   -9.1608   -0.3521 C.2      1 ZINC000008551568    0.5000
16     O16     8.5973   -8.1009   -0.4155 O.2      1 ZINC000008551568   -0.5300
17     C17    10.6714   -9.1860   -0.1150 C.3      1 ZINC000008551568    0.1000
18     H18    11.1594   -8.4863   -0.7935 H        1 ZINC000008551568    0.1400
19     O19    11.1692  -10.5044   -0.3513 O.3      1 ZINC000008551568   -0.5500
20     C20    10.9642   -8.7819    1.3314 C.3      1 ZINC000008551568   -0.0900
21     C21    10.5663   -7.3198    1.5430 C.3      1 ZINC000008551568   -0.1400
22     C22    10.1610   -9.6719    2.2821 C.3      1 ZINC000008551568   -0.1400
23     C23    12.4582   -8.9501    1.6154 C.3      1 ZINC000008551568    0.1500
24     O24    12.7317   -8.5728    2.9663 O.3      1 ZINC000008551568   -0.7700
25     P25    14.2066   -8.6247    3.6098 P.3      1 ZINC000008551568    2.3000
26     O26    14.7912  -10.0451    3.4437 O.co2    1 ZINC000008551568   -1.1100
27     O27    15.1183   -7.6053    2.8910 O.co2    1 ZINC000008551568   -1.1100
28     O28    14.1222   -8.2588    5.1754 O.3      1 ZINC000008551568   -1.0900
29     P29    15.1325   -8.4226    6.4182 P.3      1 ZINC000008551568    2.2900
30     O30    16.5477   -7.9701    5.9947 O.co2    1 ZINC000008551568   -1.1000
31     O31    15.1748   -9.9038    6.8557 O.co2    1 ZINC000008551568   -1.1100
32     O32    14.6238   -7.5145    7.6466 O.3      1 ZINC000008551568   -0.7700
33     C33    15.3627   -7.3624    8.8602 C.3      1 ZINC000008551568    0.1400
34     C34    14.5987   -6.4377    9.8100 C.3      1 ZINC000008551568    0.0700
35     H35    14.3709   -5.4928    9.3168 H        1 ZINC000008551568    0.1000
36     O36    13.3839   -7.0744   10.2625 O.3      1 ZINC000008551568   -0.3500
37     C37    13.0193   -6.3800   11.4752 C.3      1 ZINC000008551568    0.2600
38     H38    12.5495   -5.4252   11.2392 H        1 ZINC000008551568    0.1200
39     N39    12.1182   -7.2047   12.2839 N.pl3    1 ZINC000008551568   -0.4500
40     C40    12.0130   -8.5632   12.2425 C.2      1 ZINC000008551568    0.2900
41     N41    11.1146   -8.9657   13.0938 N.2      1 ZINC000008551568   -0.4800
42     C42    10.5877   -7.8943   13.7337 C.ar     1 ZINC000008551568   -0.1000
43     C43     9.6090   -7.7192   14.7266 C.ar     1 ZINC000008551568    0.5000
44     N44     8.9477   -8.8074   15.2686 N.pl3    1 ZINC000008551568   -0.8300
45     N45     9.3334   -6.4843   15.1334 N.ar     1 ZINC000008551568   -0.6000
46     C46     9.9595   -5.4402   14.6222 C.ar     1 ZINC000008551568    0.3400
47     N47    10.8825   -5.5561   13.6906 N.ar     1 ZINC000008551568   -0.5400
48     C48    11.2295   -6.7518   13.2261 C.ar     1 ZINC000008551568    0.3000
49     C49    14.3553   -6.1530   12.2169 C.3      1 ZINC000008551568    0.0600
50     H50    14.5318   -6.9507   12.9385 H        1 ZINC000008551568    0.0700
51     O51    14.3567   -4.8811   12.8682 O.3      1 ZINC000008551568   -0.5000
52     C52    15.4195   -6.1895   11.0949 C.3      1 ZINC000008551568    0.1500
53     H53    16.1221   -7.0061   11.2614 H        1 ZINC000008551568    0.0800
54     O54    16.1122   -4.9418   11.0210 O.3      1 ZINC000008551568   -0.7200
55     P55    17.7074   -4.8128   11.1965 P.3      1 ZINC000008551568    2.1200
56     O56    18.1370   -5.4587   12.5576 O.co2    1 ZINC000008551568   -1.1900
57     O57    18.4242   -5.5544   10.0172 O.co2    1 ZINC000008551568   -1.1700
58     O58    18.1133   -3.2996   11.1854 O.co2    1 ZINC000008551568   -1.1700
59     H59    -0.5539  -18.4722   -1.8422 H        1 ZINC000008551568    0.1200
60     H60    -2.3881  -18.1252   -1.9618 H        1 ZINC000008551568    0.1200
61     H61    -2.6384  -15.3256   -0.7442 H        1 ZINC000008551568    0.0800
62     H62    -1.9385  -14.5388   -2.1792 H        1 ZINC000008551568    0.0700
63     H63    -3.0879  -15.8840   -2.3734 H        1 ZINC000008551568    0.0700
64     H64     2.6529  -14.8619   -0.4156 H        1 ZINC000008551568    0.1000
65     H65     2.7975  -14.7300   -2.1847 H        1 ZINC000008551568    0.1000
66     H66     2.5981  -12.2641   -2.0172 H        1 ZINC000008551568    0.0800
67     H67     2.4534  -12.3960   -0.2481 H        1 ZINC000008551568    0.0800
68     H68     4.8223  -13.7095   -1.0477 H        1 ZINC000008551568    0.4000
69     H69     6.8123  -12.3124    0.1145 H        1 ZINC000008551568    0.1100
70     H70     6.9570  -12.1805   -1.6546 H        1 ZINC000008551568    0.1000
71     H71     6.7575   -9.7146   -1.4871 H        1 ZINC000008551568    0.0700
72     H72     6.6129   -9.8465    0.2820 H        1 ZINC000008551568    0.0800
73     H73     8.9818  -11.1600   -0.5176 H        1 ZINC000008551568    0.4000
74     H74    10.7780  -11.1806    0.2186 H        1 ZINC000008551568    0.3700
75     H75     9.4887   -7.2146    1.4168 H        1 ZINC000008551568    0.0600
76     H76    10.8463   -7.0091    2.5496 H        1 ZINC000008551568    0.0800
77     H77    11.0804   -6.6941    0.8134 H        1 ZINC000008551568    0.0500
78     H78    10.4445  -10.7135    2.1313 H        1 ZINC000008551568    0.0500
79     H79    10.3696   -9.3840    3.3125 H        1 ZINC000008551568    0.0800
80     H80     9.0967   -9.5520    2.0797 H        1 ZINC000008551568    0.0400
81     H81    12.7417   -9.9917    1.4646 H        1 ZINC000008551568    0.0600
82     H82    13.0304   -8.3161    0.9381 H        1 ZINC000008551568    0.0500
83     H83    15.4945   -8.3372    9.3299 H        1 ZINC000008551568    0.0600
84     H84    16.3389   -6.9305    8.6396 H        1 ZINC000008551568    0.1000
85     H85    12.5896   -9.2100   11.5979 H        1 ZINC000008551568    0.2300
86     H86     9.1580   -9.7039   14.9637 H        1 ZINC000008551568    0.4200
87     H87     8.2740   -8.6736   15.9535 H        1 ZINC000008551568    0.4000
88     H88     9.7047   -4.4541   14.9815 H        1 ZINC000008551568    0.2000
89     H89    13.6688   -4.7828   13.5407 H        1 ZINC000008551568    0.3500
@<TRIPOS>BOND
1     1     2     2
2     1     59    1
3     1     60    1
4     2     3     1
5     2     4     1
6     3     61    1
7     3     62    1
8     3     63    1
9     4     5     2
10    4     6     1
11    6     7     1
12    7     8     1
13    7     64    1
14    7     65    1
15    8     9     1
16    8     66    1
17    8     67    1
18    9     10    am
19    9     68    1
20    10    11    2
21    10    12    1
22    12    13    1
23    12    69    1
24    12    70    1
25    13    14    1
26    13    71    1
27    13    72    1
28    14    15    am
29    14    73    1
30    15    16    2
31    15    17    1
32    17    18    1
33    17    19    1
34    17    20    1
35    19    74    1
36    20    21    1
37    20    22    1
38    20    23    1
39    21    75    1
40    21    76    1
41    21    77    1
42    22    78    1
43    22    79    1
44    22    80    1
45    23    24    1
46    23    81    1
47    23    82    1
48    24    25    1
49    25    26    ar
50    25    27    ar
51    25    28    1
52    28    29    1
53    29    30    ar
54    29    31    ar
55    29    32    1
56    32    33    1
57    33    34    1
58    33    83    1
59    33    84    1
60    34    35    1
61    34    52    1
62    34    36    1
63    36    37    1
64    37    38    1
65    37    39    1
66    37    49    1
67    39    48    1
68    39    40    1
69    40    41    2
70    40    85    1
71    41    42    1
72    42    48    ar
73    42    43    ar
74    43    44    1
75    43    45    ar
76    44    86    1
77    44    87    1
78    45    46    ar
79    46    47    ar
80    46    88    1
81    47    48    ar
82    49    50    1
83    49    51    1
84    49    52    1
85    51    89    1
86    52    53    1
87    52    54    1
88    54    55    1
89    55    56    ar
90    55    57    ar
91    55    58    ar
@<TRIPOS>SUBSTRUCTURE
1   ZINC000008551568 1     RESIDUE    1   A     ZIN   1
@<TRIPOS>MOLECULE
ZINC000008551112
87    89    1     0     0
SMALL
USER_CHARGES
@<TRIPOS>ATOM
1      C1     -0.0985    1.3509    0.2822 C.3      1 ZINC000008551112   -0.1500
2      C2     -0.1133   -0.1556    0.0155 C.3      1 ZINC000008551112   -0.1000
3      C3      0.5901   -0.8836    1.1627 C.3      1 ZINC000008551112   -0.1300
4      C4     -1.5606   -0.6414   -0.0855 C.3      1 ZINC000008551112    0.1400
5      O5     -2.2415   -0.3681    1.1407 O.3      1 ZINC000008551112   -0.7600
6      P6     -3.7866   -0.7464    1.3890 P.3      1 ZINC000008551112    2.2900
7      O7     -4.6557   -0.1184    0.2767 O.co2    1 ZINC000008551112   -1.1000
8      O8     -3.9509   -2.2825    1.3654 O.co2    1 ZINC000008551112   -1.1100
9      O9     -4.2548   -0.1785    2.8209 O.3      1 ZINC000008551112   -1.0900
10     P10    -5.6875    0.0547    3.5174 P.3      1 ZINC000008551112    2.2900
11     O11    -6.6844    0.6047    2.4731 O.co2    1 ZINC000008551112   -1.1000
12     O12    -6.2135   -1.2867    4.0750 O.co2    1 ZINC000008551112   -1.1000
13     O13    -5.5331    1.1127    4.7211 O.3      1 ZINC000008551112   -0.7700
14     C14    -6.6453    1.6085    5.4689 C.3      1 ZINC000008551112    0.1400
15     C15    -6.1483    2.5907    6.5316 C.3      1 ZINC000008551112    0.0700
16     H16    -5.3807    2.1241    7.1491 H        1 ZINC000008551112    0.1000
17     O17    -5.6334    3.7875    5.9084 O.3      1 ZINC000008551112   -0.3500
18     C18    -5.6655    4.7977    6.9401 C.3      1 ZINC000008551112    0.2600
19     H19    -4.8245    4.6707    7.6218 H        1 ZINC000008551112    0.1200
20     N20    -5.6403    6.1359    6.3445 N.pl3    1 ZINC000008551112   -0.4500
21     C21    -6.0404    6.4653    5.0836 C.2      1 ZINC000008551112    0.2900
22     N22    -5.8814    7.7417    4.8859 N.2      1 ZINC000008551112   -0.4800
23     C23    -5.3706    8.3110    6.0040 C.ar     1 ZINC000008551112   -0.1000
24     C24    -5.0011    9.6170    6.3675 C.ar     1 ZINC000008551112    0.5000
25     N25    -5.1372   10.6657    5.4748 N.pl3    1 ZINC000008551112   -0.8300
26     N26    -4.5183    9.8219    7.5887 N.ar     1 ZINC000008551112   -0.6000
27     C27    -4.3854    8.8274    8.4472 C.ar     1 ZINC000008551112    0.3400
28     N28    -4.7178    7.5886    8.1506 N.ar     1 ZINC000008551112   -0.5400
29     C29    -5.2153    7.2885    6.9554 C.ar     1 ZINC000008551112    0.2900
30     C30    -6.9997    4.5617    7.6821 C.3      1 ZINC000008551112    0.0600
31     H31    -7.7809    5.2049    7.2771 H        1 ZINC000008551112    0.0700
32     O32    -6.8406    4.7912    9.0836 O.3      1 ZINC000008551112   -0.5000
33     C33    -7.3241    3.0741    7.4091 C.3      1 ZINC000008551112    0.1500
34     H34    -8.2659    2.9817    6.8681 H        1 ZINC000008551112    0.0800
35     O35    -7.3778    2.3403    8.6341 O.3      1 ZINC000008551112   -0.7200
36     P36    -8.6839    1.5312    9.1151 P.3      1 ZINC000008551112    2.1200
37     O37    -9.9162    2.4982    9.1433 O.co2    1 ZINC000008551112   -1.1900
38     O38    -8.9658    0.3550    8.1193 O.co2    1 ZINC000008551112   -1.1700
39     O39    -8.4408    0.9530   10.5508 O.co2    1 ZINC000008551112   -1.1700
40     C40     0.6157   -0.4483   -1.2974 C.3      1 ZINC000008551112    0.1100
41     H41     1.6142   -0.0124   -1.2635 H        1 ZINC000008551112    0.1200
42     O42     0.7190   -1.8618   -1.4801 O.3      1 ZINC000008551112   -0.5400
43     C43    -0.1555    0.1515   -2.4448 C.2      1 ZINC000008551112    0.4900
44     O44    -0.7013   -0.5707   -3.2519 O.2      1 ZINC000008551112   -0.5300
45     N45    -0.2388    1.4905   -2.5740 N.am     1 ZINC000008551112   -0.7300
46     C46    -1.0675    2.0742   -3.6317 C.3      1 ZINC000008551112    0.1300
47     C47    -0.9878    3.6004   -3.5583 C.3      1 ZINC000008551112   -0.1500
48     C48    -1.8403    4.2008   -4.6463 C.2      1 ZINC000008551112    0.5200
49     O49    -2.4515    3.4791   -5.4056 O.2      1 ZINC000008551112   -0.5300
50     N50    -1.9236    5.5398   -4.7755 N.am     1 ZINC000008551112   -0.7300
51     C51    -2.7523    6.1235   -5.8332 C.3      1 ZINC000008551112    0.1400
52     C52    -2.6726    7.6497   -5.7598 C.3      1 ZINC000008551112   -0.1100
53     S53    -3.6965    8.3708   -7.0665 S.3      1 ZINC000008551112   -0.2000
54     C54    -3.4343   10.0356   -6.7650 C.2      1 ZINC000008551112    0.3500
55     O55    -2.7095   10.3805   -5.8552 O.2      1 ZINC000008551112   -0.3900
56     C56    -4.1038   11.0725   -7.6296 C.3      1 ZINC000008551112   -0.2100
57     C57    -3.7113   12.4490   -7.1582 C.2      1 ZINC000008551112    0.5000
58     O58    -2.9577   12.5762   -6.2083 O.co2    1 ZINC000008551112   -0.6600
59     O59    -4.1473   13.4355   -7.7269 O.co2    1 ZINC000008551112   -0.7000
60     H60     0.9273    1.7171    0.2410 H        1 ZINC000008551112    0.0500
61     H61    -0.6966    1.8597   -0.4738 H        1 ZINC000008551112    0.0600
62     H62    -0.5157    1.5492    1.2695 H        1 ZINC000008551112    0.0800
63     H63     0.0362   -0.7245    2.0879 H        1 ZINC000008551112    0.0800
64     H64     0.6331   -1.9505    0.9439 H        1 ZINC000008551112    0.0600
65     H65     1.6022   -0.4943    1.2737 H        1 ZINC000008551112    0.0500
66     H66    -2.0617   -0.1228   -0.9028 H        1 ZINC000008551112    0.0500
67     H67    -1.5712   -1.7147   -0.2755 H        1 ZINC000008551112    0.0500
68     H68    -7.3362    2.1185    4.7976 H        1 ZINC000008551112    0.0600
69     H69    -7.1569    0.7770    5.9537 H        1 ZINC000008551112    0.1000
70     H70    -6.4312    5.7695    4.3559 H        1 ZINC000008551112    0.2300
71     H71    -5.4912   10.5036    4.5864 H        1 ZINC000008551112    0.4200
72     H72    -4.8786   11.5629    5.7376 H        1 ZINC000008551112    0.4000
73     H73    -3.9887    9.0381    9.4294 H        1 ZINC000008551112    0.2000
74     H74    -6.5780    5.6946    9.3069 H        1 ZINC000008551112    0.3500
75     H75    -0.1335   -2.3166   -1.5195 H        1 ZINC000008551112    0.3900
76     H76     0.2500    2.0677   -1.9666 H        1 ZINC000008551112    0.4000
77     H77    -0.7064    1.7378   -4.6035 H        1 ZINC000008551112    0.0700
78     H78    -2.1021    1.7576   -3.4990 H        1 ZINC000008551112    0.0900
79     H79    -1.3490    3.9367   -2.5864 H        1 ZINC000008551112    0.1100
80     H80     0.0467    3.9170   -3.6909 H        1 ZINC000008551112    0.1000
81     H81    -1.4348    6.1170   -4.1681 H        1 ZINC000008551112    0.4000
82     H82    -2.3912    5.7871   -6.8050 H        1 ZINC000008551112    0.0800
83     H83    -3.7869    5.8069   -5.7005 H        1 ZINC000008551112    0.0800
84     H84    -3.0338    7.9860   -4.7879 H        1 ZINC000008551112    0.1000
85     H85    -1.6381    7.9663   -5.8924 H        1 ZINC000008551112    0.1000
86     H86    -3.7900   10.9398   -8.6650 H        1 ZINC000008551112    0.1000
87     H87    -5.1857   10.9596   -7.5605 H        1 ZINC000008551112    0.1000
@<TRIPOS>BOND
1     1     2     1
2     1     60    1
3     1     61    1
4     1     62    1
5     2     3     1
6     2     4     1
7     2     40    1
8     3     63    1
9     3     64    1
10    3     65    1
11    4     5     1
12    4     66    1
13    4     67    1
14    5     6     1
15    6     7     ar
16    6     8     ar
17    6     9     1
18    9     10    1
19    10    11    ar
20    10    12    ar
21    10    13    1
22    13    14    1
23    14    15    1
24    14    68    1
25    14    69    1
26    15    16    1
27    15    33    1
28    15    17    1
29    17    18    1
30    18    19    1
31    18    20    1
32    18    30    1
33    20    29    1
34    20    21    1
35    21    22    2
36    21    70    1
37    22    23    1
38    23    29    ar
39    23    24    ar
40    24    25    1
41    24    26    ar
42    25    71    1
43    25    72    1
44    26    27    ar
45    27    28    ar
46    27    73    1
47    28    29    ar
48    30    31    1
49    30    32    1
50    30    33    1
51    32    74    1
52    33    34    1
53    33    35    1
54    35    36    1
55    36    37    ar
56    36    38    ar
57    36    39    ar
58    40    41    1
59    40    42    1
60    40    43    1
61    42    75    1
62    43    44    2
63    43    45    am
64    45    46    1
65    45    76    1
66    46    47    1
67    46    77    1
68    46    78    1
69    47    48    1
70    47    79    1
71    47    80    1
72    48    49    2
73    48    50    am
74    50    51    1
75    50    81    1
76    51    52    1
77    51    82    1
78    51    83    1
79    52    53    1
80    52    84    1
81    52    85    1
82    53    54    1
83    54    55    2
84    54    56    1
85    56    57    1
86    56    86    1
87    56    87    1
88    57    58    ar
89    57    59    ar
@<TRIPOS>SUBSTRUCTURE
1   ZINC000008551112 1     RESIDUE    1   A     ZIN   1
@<TRIPOS>MOLECULE
ZINC000008551218
90    92    1     0     0
SMALL
USER_CHARGES
@<TRIPOS>ATOM
1      C1     -5.9974    3.5663  -12.6403 C.3      1 ZINC000008551218   -0.1200
2      C2     -7.2746    4.3486  -12.3277 C.3      1 ZINC000008551218   -0.1800
3      H3     -7.0176    5.2698  -11.8049 H        1 ZINC000008551218    0.1000
4      C4     -7.9865    4.6825  -13.6133 C.2      1 ZINC000008551218    0.5000
5      O5     -9.1207    4.2782  -13.8048 O.co2    1 ZINC000008551218   -0.6600
6      O6     -7.4283    5.3569  -14.4619 O.co2    1 ZINC000008551218   -0.7000
7      C7     -8.1760    3.5116  -11.4571 C.2      1 ZINC000008551218    0.3500
8      O8     -9.2875    3.2152  -11.8428 O.2      1 ZINC000008551218   -0.3900
9      S9     -7.6315    2.9788   -9.9239 S.3      1 ZINC000008551218   -0.1900
10     C10    -9.0899    2.0580   -9.3750 C.3      1 ZINC000008551218   -0.1100
11     C11    -8.8301    1.4722   -7.9857 C.3      1 ZINC000008551218    0.1400
12     N12   -10.0106    0.7269   -7.5415 N.am     1 ZINC000008551218   -0.7300
13     C13   -10.0108    0.1200   -6.3381 C.2      1 ZINC000008551218    0.5200
14     O14    -9.0338    0.1908   -5.6230 O.2      1 ZINC000008551218   -0.5300
15     C15   -11.2251   -0.6467   -5.8811 C.3      1 ZINC000008551218   -0.1500
16     C16   -10.9652   -1.2325   -4.4918 C.3      1 ZINC000008551218    0.1400
17     N17   -12.1457   -1.9778   -4.0475 N.am     1 ZINC000008551218   -0.7300
18     C18   -12.1459   -2.5848   -2.8441 C.2      1 ZINC000008551218    0.5000
19     O19   -11.1390   -2.5915   -2.1682 O.2      1 ZINC000008551218   -0.5300
20     C20   -13.3974   -3.2550   -2.3385 C.3      1 ZINC000008551218    0.1000
21     H21   -13.6350   -2.8778   -1.3438 H        1 ZINC000008551218    0.1400
22     O22   -14.4809   -2.9726   -3.2264 O.3      1 ZINC000008551218   -0.5500
23     C23   -13.1743   -4.7671   -2.2708 C.3      1 ZINC000008551218   -0.0900
24     C24   -12.7084   -5.2756   -3.6365 C.3      1 ZINC000008551218   -0.1400
25     C25   -12.1073   -5.0787   -1.2194 C.3      1 ZINC000008551218   -0.1400
26     C26   -14.4842   -5.4592   -1.8886 C.3      1 ZINC000008551218    0.1500
27     O27   -14.2759   -6.8716   -1.8254 O.3      1 ZINC000008551218   -0.7700
28     P28   -15.4438   -7.9142   -1.4499 P.3      1 ZINC000008551218    2.3000
29     O29   -16.0691   -7.5205   -0.0931 O.co2    1 ZINC000008551218   -1.1100
30     O30   -16.5320   -7.8853   -2.5463 O.co2    1 ZINC000008551218   -1.1100
31     O31   -14.8261   -9.3974   -1.3460 O.3      1 ZINC000008551218   -1.0900
32     P32   -15.3544  -10.7884   -0.7312 P.3      1 ZINC000008551218    2.3000
33     O33   -16.8230  -11.0138   -1.1547 O.co2    1 ZINC000008551218   -1.1000
34     O34   -15.2651  -10.7371    0.8104 O.co2    1 ZINC000008551218   -1.1100
35     O35   -14.4455  -11.9980   -1.2814 O.3      1 ZINC000008551218   -0.7700
36     C36   -14.7245  -13.3712   -1.0010 C.3      1 ZINC000008551218    0.1400
37     C37   -13.6701  -14.2533   -1.6726 C.3      1 ZINC000008551218    0.0700
38     H38   -13.6113  -14.0290   -2.7376 H        1 ZINC000008551218    0.1000
39     O39   -12.3825  -14.0628   -1.0468 O.3      1 ZINC000008551218   -0.3500
40     C40   -11.6172  -15.2400   -1.3850 C.3      1 ZINC000008551218    0.2600
41     H41   -11.2431  -15.1689   -2.4063 H        1 ZINC000008551218    0.1200
42     N42   -10.5056  -15.4127   -0.4465 N.pl3    1 ZINC000008551218   -0.4500
43     C43   -10.4391  -14.9230    0.8240 C.2      1 ZINC000008551218    0.2900
44     N44    -9.3100  -15.2645    1.3736 N.2      1 ZINC000008551218   -0.4800
45     C45    -8.5822  -15.9930    0.4934 C.ar     1 ZINC000008551218   -0.1000
46     C46    -7.3214  -16.6124    0.5276 C.ar     1 ZINC000008551218    0.5000
47     N47    -6.5298  -16.5445    1.6607 N.pl3    1 ZINC000008551218   -0.8300
48     N48    -6.9071  -17.2653   -0.5533 N.ar     1 ZINC000008551218   -0.6000
49     C49    -7.6558  -17.3357   -1.6387 C.ar     1 ZINC000008551218    0.3400
50     N50    -8.8424  -16.7709   -1.7164 N.ar     1 ZINC000008551218   -0.5400
51     C51    -9.3431  -16.1018   -0.6830 C.ar     1 ZINC000008551218    0.2900
52     C52   -12.6173  -16.4106   -1.2589 C.3      1 ZINC000008551218    0.0600
53     H53   -12.5481  -16.8675   -0.2717 H        1 ZINC000008551218    0.0700
54     O54   -12.3795  -17.3842   -2.2776 O.3      1 ZINC000008551218   -0.5000
55     C55   -14.0005  -15.7466   -1.4550 C.3      1 ZINC000008551218    0.1500
56     H56   -14.6153  -15.8744   -0.5641 H        1 ZINC000008551218    0.0800
57     O57   -14.6601  -16.2920   -2.5994 O.3      1 ZINC000008551218   -0.7200
58     P58   -16.0981  -17.0118   -2.5225 P.3      1 ZINC000008551218    2.1200
59     O59   -16.0469  -18.1695   -1.4682 O.co2    1 ZINC000008551218   -1.1900
60     O60   -17.1838  -15.9656   -2.0969 O.co2    1 ZINC000008551218   -1.1700
61     O61   -16.4631  -17.6008   -3.9276 O.co2    1 ZINC000008551218   -1.1700
62     H62    -5.3455    4.1718  -13.2700 H        1 ZINC000008551218    0.0700
63     H63    -5.4825    3.3248  -11.7105 H        1 ZINC000008551218    0.0500
64     H64    -6.2544    2.6451  -13.1632 H        1 ZINC000008551218    0.0500
65     H65    -9.9481    2.7287   -9.3319 H        1 ZINC000008551218    0.1000
66     H66    -9.2952    1.2502  -10.0774 H        1 ZINC000008551218    0.1000
67     H67    -7.9720    0.8015   -8.0289 H        1 ZINC000008551218    0.0800
68     H68    -8.6249    2.2800   -7.2833 H        1 ZINC000008551218    0.0800
69     H69   -10.7919    0.6702   -8.1134 H        1 ZINC000008551218    0.4000
70     H70   -12.0832    0.0240   -5.8379 H        1 ZINC000008551218    0.1000
71     H71   -11.4303   -1.4546   -6.5835 H        1 ZINC000008551218    0.1100
72     H72   -10.1071   -1.9032   -4.5349 H        1 ZINC000008551218    0.0800
73     H73   -10.7600   -0.4247   -3.7894 H        1 ZINC000008551218    0.0700
74     H74   -12.9271   -2.0345   -4.6195 H        1 ZINC000008551218    0.4000
75     H75   -14.3381   -3.2808   -4.1317 H        1 ZINC000008551218    0.3700
76     H76   -11.7752   -4.7825   -3.9088 H        1 ZINC000008551218    0.0500
77     H77   -12.5495   -6.3529   -3.5883 H        1 ZINC000008551218    0.0800
78     H78   -13.4686   -5.0537   -4.3855 H        1 ZINC000008551218    0.0500
79     H79   -12.3855   -4.6177   -0.2717 H        1 ZINC000008551218    0.0500
80     H80   -12.0296   -6.1581   -1.0894 H        1 ZINC000008551218    0.0700
81     H81   -11.1467   -4.6822   -1.5482 H        1 ZINC000008551218    0.0600
82     H82   -14.8162   -5.0970   -0.9156 H        1 ZINC000008551218    0.0500
83     H83   -15.2444   -5.2373   -2.6376 H        1 ZINC000008551218    0.0600
84     H84   -14.7015  -13.5339    0.0766 H        1 ZINC000008551218    0.0600
85     H85   -15.7115  -13.6274   -1.3861 H        1 ZINC000008551218    0.1000
86     H86   -11.2096  -14.3374    1.3035 H        1 ZINC000008551218    0.2300
87     H87    -6.8434  -16.0652    2.4435 H        1 ZINC000008551218    0.4200
88     H88    -5.6612  -16.9763    1.6721 H        1 ZINC000008551218    0.4000
89     H89    -7.2805  -17.8765   -2.4948 H        1 ZINC000008551218    0.2000
90     H90   -11.5024  -17.7893   -2.2374 H        1 ZINC000008551218    0.3500
@<TRIPOS>BOND
1     1     2     1
2     1     62    1
3     1     63    1
4     1     64    1
5     2     3     1
6     2     4     1
7     2     7     1
8     4     5     ar
9     4     6     ar
10    7     8     2
11    7     9     1
12    9     10    1
13    10    11    1
14    10    65    1
15    10    66    1
16    11    12    1
17    11    67    1
18    11    68    1
19    12    13    am
20    12    69    1
21    13    14    2
22    13    15    1
23    15    16    1
24    15    70    1
25    15    71    1
26    16    17    1
27    16    72    1
28    16    73    1
29    17    18    am
30    17    74    1
31    18    19    2
32    18    20    1
33    20    21    1
34    20    22    1
35    20    23    1
36    22    75    1
37    23    24    1
38    23    25    1
39    23    26    1
40    24    76    1
41    24    77    1
42    24    78    1
43    25    79    1
44    25    80    1
45    25    81    1
46    26    27    1
47    26    82    1
48    26    83    1
49    27    28    1
50    28    29    ar
51    28    30    ar
52    28    31    1
53    31    32    1
54    32    33    ar
55    32    34    ar
56    32    35    1
57    35    36    1
58    36    37    1
59    36    84    1
60    36    85    1
61    37    38    1
62    37    55    1
63    37    39    1
64    39    40    1
65    40    41    1
66    40    42    1
67    40    52    1
68    42    51    1
69    42    43    1
70    43    44    2
71    43    86    1
72    44    45    1
73    45    51    ar
74    45    46    ar
75    46    47    1
76    46    48    ar
77    47    87    1
78    47    88    1
79    48    49    ar
80    49    50    ar
81    49    89    1
82    50    51    ar
83    52    53    1
84    52    54    1
85    52    55    1
86    54    90    1
87    55    56    1
88    55    57    1
89    57    58    1
90    58    59    ar
91    58    60    ar
92    58    61    ar
@<TRIPOS>SUBSTRUCTURE
1   ZINC000008551218 1     RESIDUE    1   A     ZIN   1
@<TRIPOS>MOLECULE
ZINC000008551257
89    91    1     0     0
SMALL
USER_CHARGES
@<TRIPOS>ATOM
1      C1      7.8057   -7.1575   16.8396 C.3      1 ZINC000008551257   -0.1400
2      C2      7.3889   -8.1484   15.7834 C.2      1 ZINC000008551257   -0.0500
3      C3      6.8423   -7.7207   14.6491 C.2      1 ZINC000008551257   -0.2300
4      C4      6.4355   -8.6878   13.6182 C.2      1 ZINC000008551257    0.3800
5      O5      6.5991   -9.8791   13.8033 O.2      1 ZINC000008551257   -0.4500
6      S6      5.7113   -8.1211   12.1152 S.3      1 ZINC000008551257   -0.1400
7      C7      5.4358   -9.7044   11.2825 C.3      1 ZINC000008551257   -0.1100
8      C8      4.7949   -9.4568    9.9154 C.3      1 ZINC000008551257    0.1400
9      N9      4.5720  -10.7383    9.2414 N.am     1 ZINC000008551257   -0.7300
10     C10     4.0136  -10.7665    8.0151 C.2      1 ZINC000008551257    0.5200
11     O11     3.6957   -9.7310    7.4695 O.2      1 ZINC000008551257   -0.5300
12     C12     3.7843  -12.0848    7.3217 C.3      1 ZINC000008551257   -0.1500
13     C13     3.1433  -11.8372    5.9546 C.3      1 ZINC000008551257    0.1400
14     N14     2.9204  -13.1187    5.2806 N.am     1 ZINC000008551257   -0.7400
15     C15     2.3620  -13.1469    4.0543 C.2      1 ZINC000008551257    0.5000
16     O16     1.9591  -12.1213    3.5477 O.2      1 ZINC000008551257   -0.5300
17     C17     2.2383  -14.4529    3.3125 C.3      1 ZINC000008551257    0.1000
18     H18     1.2246  -14.5562    2.9253 H        1 ZINC000008551257    0.1400
19     O19     2.5208  -15.5347    4.2024 O.3      1 ZINC000008551257   -0.5500
20     C20     3.2329  -14.4755    2.1502 C.3      1 ZINC000008551257   -0.0900
21     C21     2.8410  -13.4117    1.1228 C.3      1 ZINC000008551257   -0.1400
22     C22     4.6393  -14.1823    2.6767 C.3      1 ZINC000008551257   -0.1400
23     C23     3.2133  -15.8550    1.4888 C.3      1 ZINC000008551257    0.1500
24     O24     4.1423  -15.8761    0.4032 O.3      1 ZINC000008551257   -0.7700
25     P25     4.3836  -17.1733   -0.5193 P.3      1 ZINC000008551257    2.3000
26     O26     4.7532  -18.3788    0.3736 O.co2    1 ZINC000008551257   -1.1100
27     O27     3.0933  -17.4924   -1.3069 O.co2    1 ZINC000008551257   -1.1100
28     O28     5.5842  -16.8819   -1.5516 O.3      1 ZINC000008551257   -1.0900
29     P29     6.4984  -17.8124   -2.4953 P.3      1 ZINC000008551257    2.2900
30     O30     5.6052  -18.8394   -3.2265 O.co2    1 ZINC000008551257   -1.1000
31     O31     7.5390  -18.5583   -1.6305 O.co2    1 ZINC000008551257   -1.1100
32     O32     7.2589  -16.8955   -3.5783 O.3      1 ZINC000008551257   -0.7700
33     C33     8.0661  -17.4361   -4.6263 C.3      1 ZINC000008551257    0.1400
34     C34     8.6375  -16.2950   -5.4703 C.3      1 ZINC000008551257    0.0700
35     H35     7.8351  -15.6492   -5.8269 H        1 ZINC000008551257    0.1000
36     O36     9.5936  -15.5319   -4.7026 O.3      1 ZINC000008551257   -0.3500
37     C37    10.4050  -14.8450   -5.6802 C.3      1 ZINC000008551257    0.2600
38     H38     9.8747  -13.9764   -6.0707 H        1 ZINC000008551257    0.1200
39     N39    11.6817  -14.4382   -5.0881 N.pl3    1 ZINC000008551257   -0.4500
40     C40    12.2879  -15.0078   -4.0081 C.2      1 ZINC000008551257    0.2900
41     N41    13.4087  -14.3971   -3.7539 N.2      1 ZINC000008551257   -0.4800
42     C42    13.5926  -13.3997   -4.6520 C.ar     1 ZINC000008551257   -0.1000
43     C43    14.5909  -12.4345   -4.8661 C.ar     1 ZINC000008551257    0.5000
44     N44    15.7032  -12.3721   -4.0451 N.pl3    1 ZINC000008551257   -0.8300
45     N45    14.4423  -11.5830   -5.8758 N.ar     1 ZINC000008551257   -0.6000
46     C46    13.3846  -11.6354   -6.6645 C.ar     1 ZINC000008551257    0.3400
47     N47    12.4249  -12.5216   -6.5016 N.ar     1 ZINC000008551257   -0.5400
48     C48    12.4896  -13.4178   -5.5225 C.ar     1 ZINC000008551257    0.3000
49     C49    10.6357  -15.8828   -6.8010 C.3      1 ZINC000008551257    0.0600
50     H50    11.5794  -16.4064   -6.6484 H        1 ZINC000008551257    0.0700
51     O51    10.6176  -15.2491   -8.0817 O.3      1 ZINC000008551257   -0.5000
52     C52     9.4436  -16.8587   -6.6614 C.3      1 ZINC000008551257    0.1500
53     H53     9.7980  -17.8651   -6.4388 H        1 ZINC000008551257    0.0800
54     O54     8.6546  -16.8591   -7.8528 O.3      1 ZINC000008551257   -0.7200
55     P55     8.3832  -18.1853   -8.7244 P.3      1 ZINC000008551257    2.1200
56     O56     9.7508  -18.8400   -9.1187 O.co2    1 ZINC000008551257   -1.1900
57     O57     7.5418  -19.2019   -7.8801 O.co2    1 ZINC000008551257   -1.1700
58     O58     7.5930  -17.8045  -10.0224 O.co2    1 ZINC000008551257   -1.1700
59     H59     6.9363   -6.5863   17.1652 H        1 ZINC000008551257    0.0800
60     H60     8.2299   -7.6904   17.6906 H        1 ZINC000008551257    0.0700
61     H61     8.5524   -6.4791   16.4269 H        1 ZINC000008551257    0.0800
62     H62     7.5342   -9.2059   15.9478 H        1 ZINC000008551257    0.1300
63     H63     6.6971   -6.6632   14.4848 H        1 ZINC000008551257    0.1400
64     H64     6.3893  -10.2156   11.1495 H        1 ZINC000008551257    0.1000
65     H65     4.7732  -10.3229   11.8878 H        1 ZINC000008551257    0.1000
66     H66     3.8415   -8.9455   10.0484 H        1 ZINC000008551257    0.0800
67     H67     5.4575   -8.8383    9.3101 H        1 ZINC000008551257    0.0800
68     H68     4.8262  -11.5665    9.6777 H        1 ZINC000008551257    0.4000
69     H69     4.7377  -12.5960    7.1887 H        1 ZINC000008551257    0.1100
70     H70     3.1216  -12.7033    7.9270 H        1 ZINC000008551257    0.1000
71     H71     2.1899  -11.3259    6.0876 H        1 ZINC000008551257    0.0700
72     H72     3.8059  -11.2187    5.3493 H        1 ZINC000008551257    0.0800
73     H73     3.1746  -13.9469    5.7169 H        1 ZINC000008551257    0.4000
74     H74     3.4082  -15.5072    4.5857 H        1 ZINC000008551257    0.3700
75     H75     2.9302  -12.4225    1.5719 H        1 ZINC000008551257    0.0600
76     H76     3.5024  -13.4796    0.2591 H        1 ZINC000008551257    0.0800
77     H77     1.8111  -13.5751    0.8055 H        1 ZINC000008551257    0.0500
78     H78     4.9185  -14.9402    3.4087 H        1 ZINC000008551257    0.0500
79     H79     5.3479  -14.1984    1.8486 H        1 ZINC000008551257    0.0800
80     H80     4.6533  -13.1995    3.1479 H        1 ZINC000008551257    0.0400
81     H81     3.4925  -16.6129    2.2208 H        1 ZINC000008551257    0.0600
82     H82     2.2114  -16.0639    1.1138 H        1 ZINC000008551257    0.0500
83     H83     8.8837  -18.0131   -4.1942 H        1 ZINC000008551257    0.0600
84     H84     7.4571  -18.0844   -5.2563 H        1 ZINC000008551257    0.1000
85     H85    11.8956  -15.8423   -3.4459 H        1 ZINC000008551257    0.2300
86     H86    15.8004  -12.9993   -3.3116 H        1 ZINC000008551257    0.4200
87     H87    16.3856  -11.7011   -4.2031 H        1 ZINC000008551257    0.4000
88     H88    13.3037  -10.9243   -7.4733 H        1 ZINC000008551257    0.2000
89     H89    11.3087  -14.5833   -8.2009 H        1 ZINC000008551257    0.3500
@<TRIPOS>BOND
1     1     2     1
2     1     59    1
3     1     60    1
4     1     61    1
5     2     3     2
6     2     62    1
7     3     4     1
8     3     63    1
9     4     5     2
10    4     6     1
11    6     7     1
12    7     8     1
13    7     64    1
14    7     65    1
15    8     9     1
16    8     66    1
17    8     67    1
18    9     10    am
19    9     68    1
20    10    11    2
21    10    12    1
22    12    13    1
23    12    69    1
24    12    70    1
25    13    14    1
26    13    71    1
27    13    72    1
28    14    15    am
29    14    73    1
30    15    16    2
31    15    17    1
32    17    18    1
33    17    19    1
34    17    20    1
35    19    74    1
36    20    21    1
37    20    22    1
38    20    23    1
39    21    75    1
40    21    76    1
41    21    77    1
42    22    78    1
43    22    79    1
44    22    80    1
45    23    24    1
46    23    81    1
47    23    82    1
48    24    25    1
49    25    26    ar
50    25    27    ar
51    25    28    1
52    28    29    1
53    29    30    ar
54    29    31    ar
55    29    32    1
56    32    33    1
57    33    34    1
58    33    83    1
59    33    84    1
60    34    35    1
61    34    52    1
62    34    36    1
63    36    37    1
64    37    38    1
65    37    39    1
66    37    49    1
67    39    48    1
68    39    40    1
69    40    41    2
70    40    85    1
71    41    42    1
72    42    48    ar
73    42    43    ar
74    43    44    1
75    43    45    ar
76    44    86    1
77    44    87    1
78    45    46    ar
79    46    47    ar
80    46    88    1
81    47    48    ar
82    49    50    1
83    49    51    1
84    49    52    1
85    51    89    1
86    52    53    1
87    52    54    1
88    54    55    1
89    55    56    ar
90    55    57    ar
91    55    58    ar
@<TRIPOS>SUBSTRUCTURE
1   ZINC000008551257 1     RESIDUE    1   A     ZIN   1
@<TRIPOS>MOLECULE
ZINC000195796858
106   108   1     0     0
SMALL
USER_CHARGES
@<TRIPOS>ATOM
1      C1      1.8299  -28.7924   -0.4164 C.3      1 ZINC000195796858   -0.1500
2      C2      1.6349  -27.2759   -0.3606 C.3      1 ZINC000195796858   -0.1300
3      C3      2.3260  -26.7183    0.8853 C.3      1 ZINC000195796858   -0.1200
4      C4      2.1310  -25.2018    0.9411 C.3      1 ZINC000195796858   -0.1200
5      C5      2.8220  -24.6443    2.1871 C.3      1 ZINC000195796858   -0.1200
6      C6      2.6270  -23.1278    2.2429 C.3      1 ZINC000195796858   -0.1200
7      C7      3.3181  -22.5702    3.4889 C.3      1 ZINC000195796858   -0.1100
8      C8      3.1231  -21.0537    3.5446 C.3      1 ZINC000195796858   -0.1500
9      C9      3.8038  -20.5045    4.7719 C.2      1 ZINC000195796858    0.3300
10     O10     4.3876  -21.2527    5.5278 O.2      1 ZINC000195796858   -0.4500
11     S11     3.7532  -18.8249    5.0994 S.3      1 ZINC000195796858   -0.1200
12     C12     4.7040  -18.7761    6.6388 C.3      1 ZINC000195796858   -0.1200
13     C13     4.7950  -17.3322    7.1365 C.3      1 ZINC000195796858    0.1400
14     N14     5.5645  -17.2927    8.3825 N.am     1 ZINC000195796858   -0.7300
15     C15     5.7754  -16.1173    9.0074 C.2      1 ZINC000195796858    0.5200
16     O16     5.3281  -15.0923    8.5382 O.2      1 ZINC000195796858   -0.5300
17     C17     6.5670  -16.0767   10.2891 C.3      1 ZINC000195796858   -0.1500
18     C18     6.6580  -14.6328   10.7867 C.3      1 ZINC000195796858    0.1400
19     N19     7.4276  -14.5933   12.0327 N.am     1 ZINC000195796858   -0.7400
20     C20     7.6384  -13.4179   12.6576 C.2      1 ZINC000195796858    0.5000
21     O21     7.2706  -12.3831   12.1431 O.2      1 ZINC000195796858   -0.5200
22     C22     8.3314  -13.3895   13.9955 C.3      1 ZINC000195796858    0.1000
23     H23     7.7212  -12.8356   14.7090 H        1 ZINC000195796858    0.1400
24     O24     8.5168  -14.7266   14.4644 O.3      1 ZINC000195796858   -0.5500
25     C25     9.6927  -12.7065   13.8504 C.3      1 ZINC000195796858   -0.0900
26     C26    10.4978  -13.4023   12.7510 C.3      1 ZINC000195796858   -0.1400
27     C27     9.4887  -11.2360   13.4802 C.3      1 ZINC000195796858   -0.1400
28     C28    10.4531  -12.7981   15.1750 C.3      1 ZINC000195796858    0.1500
29     O29    11.7246  -12.1602   15.0394 O.3      1 ZINC000195796858   -0.7700
30     P30    12.7917  -12.0676   16.2414 P.3      1 ZINC000195796858    2.2900
31     O31    12.1244  -11.4170   17.4736 O.co2    1 ZINC000195796858   -1.1000
32     O32    13.2781  -13.4873   16.6087 O.co2    1 ZINC000195796858   -1.1100
33     O33    14.0474  -11.1737   15.7765 O.3      1 ZINC000195796858   -1.0900
34     P34    15.2606  -10.4581   16.5564 P.3      1 ZINC000195796858    2.2900
35     O35    14.7337   -9.8367   17.8691 O.co2    1 ZINC000195796858   -1.1000
36     O36    16.3508  -11.5031   16.8826 O.co2    1 ZINC000195796858   -1.1000
37     O37    15.8869   -9.3010   15.6284 O.3      1 ZINC000195796858   -0.7700
38     C38    16.9127   -8.4132   16.0773 C.3      1 ZINC000195796858    0.1400
39     C39    17.2754   -7.4423   14.9519 C.3      1 ZINC000195796858    0.0700
40     H40    17.5388   -7.9916   14.0480 H        1 ZINC000195796858    0.1000
41     O41    16.1765   -6.5421   14.6909 O.3      1 ZINC000195796858   -0.3500
42     C42    16.7652   -5.4083   14.0173 C.3      1 ZINC000195796858    0.2600
43     H43    16.9517   -5.6442   12.9696 H        1 ZINC000195796858    0.1200
44     N44    15.8900   -4.2387   14.1277 N.pl3    1 ZINC000195796858   -0.4500
45     C45    14.9527   -4.0209   15.0933 C.2      1 ZINC000195796858    0.2900
46     N46    14.3579   -2.8820   14.8867 N.2      1 ZINC000195796858   -0.4800
47     C47    14.8740   -2.2981   13.7785 C.ar     1 ZINC000195796858   -0.1000
48     C48    14.6317   -1.0974   13.0902 C.ar     1 ZINC000195796858    0.5000
49     N49    13.6701   -0.2075   13.5359 N.pl3    1 ZINC000195796858   -0.8300
50     N50    15.3477   -0.8360   12.0014 N.ar     1 ZINC000195796858   -0.6000
51     C51    16.2675   -1.6790   11.5692 C.ar     1 ZINC000195796858    0.3400
52     N52    16.5283   -2.8150   12.1811 N.ar     1 ZINC000195796858   -0.5400
53     C53    15.8674   -3.1589   13.2816 C.ar     1 ZINC000195796858    0.2900
54     C54    18.0977   -5.1576   14.7575 C.3      1 ZINC000195796858    0.0600
55     H55    17.9677   -4.4028   15.5330 H        1 ZINC000195796858    0.0700
56     O56    19.1145   -4.7575   13.8366 O.3      1 ZINC000195796858   -0.5000
57     C57    18.4430   -6.5285   15.3854 C.3      1 ZINC000195796858    0.1500
58     H58    18.4830   -6.4517   16.4720 H        1 ZINC000195796858    0.0800
59     O59    19.6850   -7.0153   14.8731 O.3      1 ZINC000195796858   -0.7200
60     P60    20.9468   -7.3586   15.8124 P.3      1 ZINC000195796858    2.1200
61     O61    21.3062   -6.1062   16.6824 O.co2    1 ZINC000195796858   -1.1900
62     O62    20.5876   -8.5606   16.7508 O.co2    1 ZINC000195796858   -1.1700
63     O63    22.1743   -7.7429   14.9181 O.co2    1 ZINC000195796858   -1.1700
64     H64     1.3961  -29.2475    0.4740 H        1 ZINC000195796858    0.0500
65     H65     1.3376  -29.1896   -1.3041 H        1 ZINC000195796858    0.0500
66     H66     2.8950  -29.0205   -0.4589 H        1 ZINC000195796858    0.0500
67     H67     2.0687  -26.8208   -1.2510 H        1 ZINC000195796858    0.0600
68     H68     0.5699  -27.0478   -0.3182 H        1 ZINC000195796858    0.0600
69     H69     1.8922  -27.1734    1.7757 H        1 ZINC000195796858    0.0600
70     H70     3.3910  -26.9464    0.8429 H        1 ZINC000195796858    0.0600
71     H71     2.5648  -24.7467    0.0507 H        1 ZINC000195796858    0.0600
72     H72     1.0660  -24.9738    0.9836 H        1 ZINC000195796858    0.0600
73     H73     2.3883  -25.0994    3.0775 H        1 ZINC000195796858    0.0600
74     H74     3.8871  -24.8723    2.1446 H        1 ZINC000195796858    0.0600
75     H75     3.0608  -22.6727    1.3525 H        1 ZINC000195796858    0.0600
76     H76     1.5620  -22.8997    2.2854 H        1 ZINC000195796858    0.0600
77     H77     2.8843  -23.0253    4.3793 H        1 ZINC000195796858    0.0700
78     H78     4.3831  -22.7983    3.4464 H        1 ZINC000195796858    0.0700
79     H79     3.5569  -20.5986    2.6542 H        1 ZINC000195796858    0.1100
80     H80     2.0581  -20.8256    3.5871 H        1 ZINC000195796858    0.1100
81     H81     4.2084  -19.3893    7.3915 H        1 ZINC000195796858    0.1000
82     H82     5.7072  -19.1623    6.4587 H        1 ZINC000195796858    0.1000
83     H83     5.2905  -16.7190    6.3838 H        1 ZINC000195796858    0.0800
84     H84     3.7917  -16.9461    7.3167 H        1 ZINC000195796858    0.0800
85     H85     5.9223  -18.1125    8.7578 H        1 ZINC000195796858    0.4000
86     H86     6.0715  -16.6899   11.0418 H        1 ZINC000195796858    0.1000
87     H87     7.5703  -16.4628   10.1089 H        1 ZINC000195796858    0.1100
88     H88     7.1536  -14.0196   10.0340 H        1 ZINC000195796858    0.0800
89     H89     5.6548  -14.2466   10.9669 H        1 ZINC000195796858    0.0700
90     H90     7.7853  -15.4131   12.4080 H        1 ZINC000195796858    0.4000
91     H91     9.0518  -15.2785   13.8777 H        1 ZINC000195796858    0.3700
92     H92     9.9561  -13.3370   11.8074 H        1 ZINC000195796858    0.0400
93     H93    11.4677  -12.9157   12.6477 H        1 ZINC000195796858    0.0800
94     H94    10.6431  -14.4498   13.0148 H        1 ZINC000195796858    0.0500
95     H95     8.8208  -10.7685   14.2036 H        1 ZINC000195796858    0.0500
96     H96    10.4501  -10.7225   13.4885 H        1 ZINC000195796858    0.0800
97     H97     9.0499  -11.1696   12.4846 H        1 ZINC000195796858    0.0600
98     H98     9.8795  -12.3024   15.9582 H        1 ZINC000195796858    0.0500
99     H99    10.5984  -13.8457   15.4387 H        1 ZINC000195796858    0.0600
100    H100   16.5552   -7.8517   16.9405 H        1 ZINC000195796858    0.0600
101    H101   17.7943   -8.9893   16.3584 H        1 ZINC000195796858    0.1000
102    H102   14.7354   -4.6944   15.9091 H        1 ZINC000195796858    0.2300
103    H103   13.1542   -0.4094   14.3321 H        1 ZINC000195796858    0.4200
104    H104   13.5121    0.6183   13.0520 H        1 ZINC000195796858    0.4000
105    H105   16.8265   -1.4272   10.6801 H        1 ZINC000195796858    0.2000
106    H106   18.9201   -3.9333   13.3698 H        1 ZINC000195796858    0.3500
@<TRIPOS>BOND
1     1     2     1
2     1     64    1
3     1     65    1
4     1     66    1
5     2     3     1
6     2     67    1
7     2     68    1
8     3     4     1
9     3     69    1
10    3     70    1
11    4     5     1
12    4     71    1
13    4     72    1
14    5     6     1
15    5     73    1
16    5     74    1
17    6     7     1
18    6     75    1
19    6     76    1
20    7     8     1
21    7     77    1
22    7     78    1
23    8     9     1
24    8     79    1
25    8     80    1
26    9     10    2
27    9     11    1
28    11    12    1
29    12    13    1
30    12    81    1
31    12    82    1
32    13    14    1
33    13    83    1
34    13    84    1
35    14    15    am
36    14    85    1
37    15    16    2
38    15    17    1
39    17    18    1
40    17    86    1
41    17    87    1
42    18    19    1
43    18    88    1
44    18    89    1
45    19    20    am
46    19    90    1
47    20    21    2
48    20    22    1
49    22    23    1
50    22    24    1
51    22    25    1
52    24    91    1
53    25    26    1
54    25    27    1
55    25    28    1
56    26    92    1
57    26    93    1
58    26    94    1
59    27    95    1
60    27    96    1
61    27    97    1
62    28    29    1
63    28    98    1
64    28    99    1
65    29    30    1
66    30    31    ar
67    30    32    ar
68    30    33    1
69    33    34    1
70    34    35    ar
71    34    36    ar
72    34    37    1
73    37    38    1
74    38    39    1
75    38    100   1
76    38    101   1
77    39    40    1
78    39    57    1
79    39    41    1
80    41    42    1
81    42    43    1
82    42    44    1
83    42    54    1
84    44    53    1
85    44    45    1
86    45    46    2
87    45    102   1
88    46    47    1
89    47    53    ar
90    47    48    ar
91    48    49    1
92    48    50    ar
93    49    103   1
94    49    104   1
95    50    51    ar
96    51    52    ar
97    51    105   1
98    52    53    ar
99    54    55    1
100   54    56    1
101   54    57    1
102   56    106   1
103   57    58    1
104   57    59    1
105   59    60    1
106   60    61    ar
107   60    62    ar
108   60    63    ar
@<TRIPOS>SUBSTRUCTURE
1   ZINC000195796858 1     RESIDUE    1   A     ZIN   1
@<TRIPOS>MOLECULE
ZINC000195810618
107   109   1     0     0
SMALL
USER_CHARGES
@<TRIPOS>ATOM
1      C1     -1.2127   -9.4868   24.4514 C.3      1 ZINC000195810618   -0.1500
2      C2     -1.4440  -10.4899   23.3195 C.3      1 ZINC000195810618   -0.1300
3      C3     -0.1084  -11.1141   22.9103 C.3      1 ZINC000195810618   -0.1200
4      C4     -0.3397  -12.1172   21.7784 C.3      1 ZINC000195810618   -0.1200
5      C5      0.9960  -12.7414   21.3693 C.3      1 ZINC000195810618   -0.0900
6      C6      0.7681  -13.7294   20.2544 C.2      1 ZINC000195810618   -0.1600
7      C7      1.4311  -13.6131   19.1306 C.2      1 ZINC000195810618   -0.1600
8      C8      1.2033  -14.6011   18.0157 C.3      1 ZINC000195810618   -0.0800
9      C9      0.8250  -13.8497   16.7377 C.3      1 ZINC000195810618   -0.1400
10     C10     0.5972  -14.8377   15.6228 C.2      1 ZINC000195810618    0.3300
11     O11     0.7249  -16.0263   15.8300 O.2      1 ZINC000195810618   -0.4500
12     S12     0.1581  -14.2829   14.0638 S.3      1 ZINC000195810618   -0.1200
13     C13     0.0303  -15.8640   13.1920 C.3      1 ZINC000195810618   -0.1200
14     C14    -0.3634  -15.6126   11.7351 C.3      1 ZINC000195810618    0.1300
15     N15    -0.4668  -16.8923   11.0294 N.am     1 ZINC000195810618   -0.7300
16     C16    -0.8038  -16.9171    9.7247 C.2      1 ZINC000195810618    0.5200
17     O17    -1.0214  -15.8800    9.1348 O.2      1 ZINC000195810618   -0.5300
18     C18    -0.9103  -18.2334    8.9989 C.3      1 ZINC000195810618   -0.1500
19     C19    -1.3040  -17.9821    7.5419 C.3      1 ZINC000195810618    0.1400
20     N20    -1.4074  -19.2618    6.8363 N.am     1 ZINC000195810618   -0.7400
21     C21    -1.7444  -19.2865    5.5315 C.2      1 ZINC000195810618    0.5000
22     O22    -2.0525  -18.2593    4.9652 O.2      1 ZINC000195810618   -0.5300
23     C23    -1.7384  -20.5907    4.7764 C.3      1 ZINC000195810618    0.1000
24     H24    -2.6696  -20.6920    4.2189 H        1 ZINC000195810618    0.1400
25     O25    -1.6155  -21.6749    5.6992 O.3      1 ZINC000195810618   -0.5500
26     C26    -0.5571  -20.6118    3.8044 C.3      1 ZINC000195810618   -0.0900
27     C27    -0.7639  -19.5452    2.7271 C.3      1 ZINC000195810618   -0.1400
28     C28     0.7367  -20.3215    4.5678 C.3      1 ZINC000195810618   -0.1400
29     C29    -0.4627  -21.9898    3.1463 C.3      1 ZINC000195810618    0.1500
30     O30     0.6407  -22.0095    2.2385 O.3      1 ZINC000195810618   -0.7700
31     P31     1.0376  -23.3049    1.3686 P.3      1 ZINC000195810618    2.2900
32     O32     1.2457  -24.5128    2.3092 O.co2    1 ZINC000195810618   -1.1000
33     O33    -0.0966  -23.6206    0.3682 O.co2    1 ZINC000195810618   -1.1100
34     O34     2.3995  -23.0125    0.5612 O.3      1 ZINC000195810618   -1.0900
35     P35     3.4629  -23.9419   -0.2117 P.3      1 ZINC000195810618    2.2900
36     O36     3.6929  -25.2404    0.5933 O.co2    1 ZINC000195810618   -1.1000
37     O37     2.9158  -24.2948   -1.6129 O.co2    1 ZINC000195810618   -1.1000
38     O38     4.8567  -23.1506   -0.3635 O.3      1 ZINC000195810618   -0.7700
39     C39     6.0336  -23.7456   -0.9137 C.3      1 ZINC000195810618    0.1400
40     C40     7.1712  -22.7225   -0.9116 C.3      1 ZINC000195810618    0.0700
41     H41     6.8624  -21.8117   -1.4246 H        1 ZINC000195810618    0.1000
42     O42     7.5765  -22.4242    0.4422 O.3      1 ZINC000195810618   -0.3500
43     C43     8.9099  -21.8808    0.3291 C.3      1 ZINC000195810618    0.2600
44     H44     8.8696  -20.8406    0.0057 H        1 ZINC000195810618    0.1200
45     N45     9.6149  -21.9890    1.6088 N.pl3    1 ZINC000195810618   -0.4500
46     C46     9.3460  -22.8798    2.6050 C.2      1 ZINC000195810618    0.2900
47     N47    10.1655  -22.6958    3.5991 N.2      1 ZINC000195810618   -0.4800
48     C48    11.0100  -21.6782    3.3049 C.ar     1 ZINC000195810618   -0.1000
49     C49    12.0730  -21.0508    3.9762 C.ar     1 ZINC000195810618    0.5000
50     N50    12.4566  -21.4664    5.2393 N.pl3    1 ZINC000195810618   -0.8300
51     N51    12.7019  -20.0492    3.3697 N.ar     1 ZINC000195810618   -0.6000
52     C52    12.3432  -19.6463    2.1645 C.ar     1 ZINC000195810618    0.3400
53     N53    11.3538  -20.2037    1.4984 N.ar     1 ZINC000195810618   -0.5400
54     C54    10.6708  -21.2164    2.0218 C.ar     1 ZINC000195810618    0.2900
55     C55     9.6011  -22.7511   -0.7437 C.3      1 ZINC000195810618    0.0600
56     H56    10.1630  -23.5595   -0.2759 H        1 ZINC000195810618    0.0700
57     O57    10.4608  -21.9521   -1.5590 O.3      1 ZINC000195810618   -0.5000
58     C58     8.4301  -23.3165   -1.5814 C.3      1 ZINC000195810618    0.1500
59     H59     8.4123  -24.4051   -1.5271 H        1 ZINC000195810618    0.0800
60     O60     8.5326  -22.8859   -2.9401 O.3      1 ZINC000195810618   -0.7200
61     P61     8.6352  -23.9091   -4.1789 P.3      1 ZINC000195810618    2.1200
62     O62     9.8374  -24.8872   -3.9501 O.co2    1 ZINC000195810618   -1.1900
63     O63     7.3063  -24.7315   -4.2884 O.co2    1 ZINC000195810618   -1.1700
64     O64     8.8618  -23.1041   -5.5037 O.co2    1 ZINC000195810618   -1.1700
65     H65    -2.1642   -9.0421   24.7428 H        1 ZINC000195810618    0.0500
66     H66    -0.7740   -9.9997   25.3073 H        1 ZINC000195810618    0.0500
67     H67    -0.5351   -8.7041   24.1104 H        1 ZINC000195810618    0.0500
68     H68    -2.1216  -11.2726   23.6604 H        1 ZINC000195810618    0.0600
69     H69    -1.8827   -9.9770   22.4635 H        1 ZINC000195810618    0.0600
70     H70     0.5692  -10.3314   22.5694 H        1 ZINC000195810618    0.0600
71     H71     0.3303  -11.6270   23.7663 H        1 ZINC000195810618    0.0600
72     H72    -1.0173  -12.8999   22.1194 H        1 ZINC000195810618    0.0600
73     H73    -0.7784  -11.6043   20.9225 H        1 ZINC000195810618    0.0600
74     H74     1.6736  -11.9587   21.0283 H        1 ZINC000195810618    0.0700
75     H75     1.4347  -13.2543   22.2253 H        1 ZINC000195810618    0.0700
76     H76     0.0583  -14.5333   20.3819 H        1 ZINC000195810618    0.1100
77     H77     2.1410  -12.8093   19.0031 H        1 ZINC000195810618    0.1100
78     H78     2.1156  -15.1726   17.8446 H        1 ZINC000195810618    0.0800
79     H79     0.3958  -15.2796   18.2908 H        1 ZINC000195810618    0.0700
80     H80    -0.0873  -13.2783   16.9088 H        1 ZINC000195810618    0.1100
81     H81     1.6325  -13.1712   16.4626 H        1 ZINC000195810618    0.1100
82     H82     0.9919  -16.3760   13.2254 H        1 ZINC000195810618    0.1000
83     H83    -0.7278  -16.4831   13.6716 H        1 ZINC000195810618    0.1000
84     H84    -1.3250  -15.1005   11.7017 H        1 ZINC000195810618    0.0800
85     H85     0.3948  -14.9935   11.2555 H        1 ZINC000195810618    0.0800
86     H86    -0.2928  -17.7217   11.5012 H        1 ZINC000195810618    0.4000
87     H87     0.0514  -18.7455    9.0322 H        1 ZINC000195810618    0.1100
88     H88    -1.6684  -18.8525    9.4785 H        1 ZINC000195810618    0.1000
89     H89    -2.2656  -17.4700    7.5085 H        1 ZINC000195810618    0.0700
90     H90    -0.5458  -17.3630    7.0623 H        1 ZINC000195810618    0.0800
91     H91    -1.2334  -20.0912    7.3081 H        1 ZINC000195810618    0.4000
92     H92    -0.8081  -21.6492    6.2308 H        1 ZINC000195810618    0.3700
93     H93    -0.7532  -18.5572    3.1873 H        1 ZINC000195810618    0.0600
94     H94     0.0374  -19.6119    1.9912 H        1 ZINC000195810618    0.0800
95     H95    -1.7232  -19.7067    2.2354 H        1 ZINC000195810618    0.0500
96     H96     0.8841  -21.0813    5.3353 H        1 ZINC000195810618    0.0500
97     H97     1.5783  -20.3365    3.8753 H        1 ZINC000195810618    0.0800
98     H98     0.6695  -19.3397    5.0366 H        1 ZINC000195810618    0.0400
99     H99    -0.3153  -22.7496    3.9138 H        1 ZINC000195810618    0.0600
100    H100   -1.3844  -22.1966    2.6025 H        1 ZINC000195810618    0.0500
101    H101    6.3198  -24.6084   -0.3121 H        1 ZINC000195810618    0.0600
102    H102    5.8348  -24.0657   -1.9365 H        1 ZINC000195810618    0.1000
103    H103    8.5672  -23.6274    2.5742 H        1 ZINC000195810618    0.2300
104    H104   11.9899  -22.1988    5.6714 H        1 ZINC000195810618    0.4200
105    H105   13.1920  -21.0252    5.6925 H        1 ZINC000195810618    0.4000
106    H106   12.8813  -18.8286    1.7082 H        1 ZINC000195810618    0.2000
107    H107   11.1788  -21.5246   -1.0723 H        1 ZINC000195810618    0.3500
@<TRIPOS>BOND
1     1     2     1
2     1     65    1
3     1     66    1
4     1     67    1
5     2     3     1
6     2     68    1
7     2     69    1
8     3     4     1
9     3     70    1
10    3     71    1
11    4     5     1
12    4     72    1
13    4     73    1
14    5     6     1
15    5     74    1
16    5     75    1
17    6     7     2
18    6     76    1
19    7     8     1
20    7     77    1
21    8     9     1
22    8     78    1
23    8     79    1
24    9     10    1
25    9     80    1
26    9     81    1
27    10    11    2
28    10    12    1
29    12    13    1
30    13    14    1
31    13    82    1
32    13    83    1
33    14    15    1
34    14    84    1
35    14    85    1
36    15    16    am
37    15    86    1
38    16    17    2
39    16    18    1
40    18    19    1
41    18    87    1
42    18    88    1
43    19    20    1
44    19    89    1
45    19    90    1
46    20    21    am
47    20    91    1
48    21    22    2
49    21    23    1
50    23    24    1
51    23    25    1
52    23    26    1
53    25    92    1
54    26    27    1
55    26    28    1
56    26    29    1
57    27    93    1
58    27    94    1
59    27    95    1
60    28    96    1
61    28    97    1
62    28    98    1
63    29    30    1
64    29    99    1
65    29    100   1
66    30    31    1
67    31    32    ar
68    31    33    ar
69    31    34    1
70    34    35    1
71    35    36    ar
72    35    37    ar
73    35    38    1
74    38    39    1
75    39    40    1
76    39    101   1
77    39    102   1
78    40    41    1
79    40    58    1
80    40    42    1
81    42    43    1
82    43    44    1
83    43    45    1
84    43    55    1
85    45    54    1
86    45    46    1
87    46    47    2
88    46    103   1
89    47    48    1
90    48    54    ar
91    48    49    ar
92    49    50    1
93    49    51    ar
94    50    104   1
95    50    105   1
96    51    52    ar
97    52    53    ar
98    52    106   1
99    53    54    ar
100   55    56    1
101   55    57    1
102   55    58    1
103   57    107   1
104   58    59    1
105   58    60    1
106   60    61    1
107   61    62    ar
108   61    63    ar
109   61    64    ar
@<TRIPOS>SUBSTRUCTURE
1   ZINC000195810618 1     RESIDUE    1   A     ZIN   1
@<TRIPOS>MOLECULE
ZINC000195883301
100   102   1     0     0
SMALL
USER_CHARGES
@<TRIPOS>ATOM
1      C1     10.0473   -8.8918   20.5262 C.3      1 ZINC000195883301   -0.1500
2      C2      9.4109   -9.9008   19.5682 C.3      1 ZINC000195883301   -0.1300
3      C3      8.8334   -9.1621   18.3592 C.3      1 ZINC000195883301   -0.1200
4      C4      8.1970  -10.1711   17.4012 C.3      1 ZINC000195883301   -0.1000
5      C5      7.6195   -9.4323   16.1922 C.3      1 ZINC000195883301   -0.1100
6      H6      8.3990   -8.8264   15.7303 H        1 ZINC000195883301    0.1100
7      C7      6.4727   -8.5276   16.6475 C.3      1 ZINC000195883301   -0.1500
8      C8      7.1025  -10.4336   15.1916 C.2      1 ZINC000195883301    0.3300
9      O9      7.1876  -11.6216   15.4228 O.2      1 ZINC000195883301   -0.4500
10     S10     6.3951   -9.8948   13.7287 S.3      1 ZINC000195883301   -0.1200
11     C11     5.9843  -11.4873   12.9729 C.3      1 ZINC000195883301   -0.1200
12     C12     5.3210  -11.2512   11.6145 C.3      1 ZINC000195883301    0.1400
13     N13     4.9886  -12.5402   11.0028 N.am     1 ZINC000195883301   -0.7300
14     C14     4.3926  -12.5790    9.7946 C.2      1 ZINC000195883301    0.5200
15     O15     4.1316  -11.5468    9.2138 O.2      1 ZINC000195883301   -0.5300
16     C16     4.0507  -13.9049    9.1653 C.3      1 ZINC000195883301   -0.1500
17     C17     3.3874  -13.6688    7.8069 C.3      1 ZINC000195883301    0.1400
18     N18     3.0549  -14.9578    7.1952 N.am     1 ZINC000195883301   -0.7400
19     C19     2.4590  -14.9966    5.9870 C.2      1 ZINC000195883301    0.5000
20     O20     2.1136  -13.9666    5.4478 O.2      1 ZINC000195883301   -0.5300
21     C21     2.2217  -16.3199    5.3060 C.3      1 ZINC000195883301    0.1000
22     H22     1.1920  -16.3666    4.9515 H        1 ZINC000195883301    0.1400
23     O23     2.4547  -17.3815    6.2336 O.3      1 ZINC000195883301   -0.5500
24     C24     3.1766  -16.4610    4.1189 C.3      1 ZINC000195883301   -0.0900
25     C25     2.8290  -15.4152    3.0576 C.3      1 ZINC000195883301   -0.1400
26     C26     4.6153  -16.2474    4.5935 C.3      1 ZINC000195883301   -0.1400
27     C27     3.0403  -17.8617    3.5185 C.3      1 ZINC000195883301    0.1500
28     O28     3.9322  -17.9935    2.4098 O.3      1 ZINC000195883301   -0.7700
29     P29     4.0539  -19.3415    1.5379 P.3      1 ZINC000195883301    2.2900
30     O30     4.3653  -20.5324    2.4715 O.co2    1 ZINC000195883301   -1.1000
31     O31     2.7212  -19.5999    0.8004 O.co2    1 ZINC000195883301   -1.1100
32     O32     5.2402  -19.1790    0.4615 O.3      1 ZINC000195883301   -1.0900
33     P33     6.0579  -20.2103   -0.4659 P.3      1 ZINC000195883301    2.2900
34     O34     6.3568  -21.4973    0.3349 O.co2    1 ZINC000195883301   -1.1000
35     O35     5.2145  -20.5629   -1.7114 O.co2    1 ZINC000195883301   -1.1000
36     O36     7.4428  -19.5329   -0.9297 O.3      1 ZINC000195883301   -0.7700
37     C37     8.4396  -20.2329   -1.6770 C.3      1 ZINC000195883301    0.1400
38     C38     9.6215  -19.3002   -1.9493 C.3      1 ZINC000195883301    0.0700
39     H39     9.2783  -18.3846   -2.4309 H        1 ZINC000195883301    0.1000
40     O40    10.3130  -18.9925   -0.7192 O.3      1 ZINC000195883301   -0.3500
41     C41    11.6297  -18.5564   -1.1218 C.3      1 ZINC000195883301    0.2600
42     H42    11.5962  -17.5267   -1.4774 H        1 ZINC000195883301    0.1200
43     N43    12.5709  -18.6792   -0.0058 N.pl3    1 ZINC000195883301   -0.4500
44     C44    12.4494  -19.5158    1.0636 C.2      1 ZINC000195883301    0.2900
45     N45    13.4645  -19.3648    1.8638 N.2      1 ZINC000195883301   -0.4800
46     C46    14.2996  -18.4244    1.3604 C.ar     1 ZINC000195883301   -0.1000
47     C47    15.5174  -17.8599    1.7759 C.ar     1 ZINC000195883301    0.5000
48     N48    16.1201  -18.2648    2.9540 N.pl3    1 ZINC000195883301   -0.8300
49     N49    16.0773  -16.9284    1.0108 N.ar     1 ZINC000195883301   -0.6000
50     C50    15.5097  -16.5362   -0.1151 C.ar     1 ZINC000195883301    0.3400
51     N51    14.3697  -17.0363   -0.5433 N.ar     1 ZINC000195883301   -0.5400
52     C52    13.7392  -17.9773    0.1517 C.ar     1 ZINC000195883301    0.2900
53     C53    12.0270  -19.5095   -2.2707 C.3      1 ZINC000195883301    0.0600
54     H54    12.6152  -20.3439   -1.8887 H        1 ZINC000195883301    0.0700
55     O55    12.7560  -18.8040   -3.2771 O.3      1 ZINC000195883301   -0.5000
56     C56    10.6741  -20.0090   -2.8301 C.3      1 ZINC000195883301    0.1500
57     H57    10.5930  -21.0908   -2.7240 H        1 ZINC000195883301    0.0800
58     O58    10.5278  -19.6292   -4.2000 O.3      1 ZINC000195883301   -0.7200
59     P59    10.3060  -20.6946   -5.3864 P.3      1 ZINC000195883301    2.1200
60     O60    11.4594  -21.7545   -5.3590 O.co2    1 ZINC000195883301   -1.1900
61     O61     8.9292  -21.4160   -5.1899 O.co2    1 ZINC000195883301   -1.1700
62     O62    10.3134  -19.9502   -6.7649 O.co2    1 ZINC000195883301   -1.1700
63     H63     9.2910   -8.1821   20.8613 H        1 ZINC000195883301    0.0500
64     H64    10.4588   -9.4181   21.3875 H        1 ZINC000195883301    0.0500
65     H65    10.8456   -8.3563   20.0122 H        1 ZINC000195883301    0.0500
66     H66    10.1673  -10.6105   19.2330 H        1 ZINC000195883301    0.0600
67     H67     8.6127  -10.4362   20.0821 H        1 ZINC000195883301    0.0600
68     H68     8.0771   -8.4523   18.6944 H        1 ZINC000195883301    0.0700
69     H69     9.6317   -8.6266   17.8452 H        1 ZINC000195883301    0.0600
70     H70     8.9534  -10.8808   17.0660 H        1 ZINC000195883301    0.0700
71     H71     7.3987  -10.7065   17.9152 H        1 ZINC000195883301    0.0700
72     H72     5.6933   -9.1335   17.1094 H        1 ZINC000195883301    0.0600
73     H73     6.8467   -7.8033   17.3712 H        1 ZINC000195883301    0.0700
74     H74     6.0613   -8.0013   15.7862 H        1 ZINC000195883301    0.0700
75     H75     6.8951  -12.0702   12.8361 H        1 ZINC000195883301    0.1000
76     H76     5.2987  -12.0316   13.6223 H        1 ZINC000195883301    0.1000
77     H77     4.4102  -10.6683   11.7513 H        1 ZINC000195883301    0.0800
78     H78     6.0067  -10.7069   10.9651 H        1 ZINC000195883301    0.0800
79     H79     5.1974  -13.3657   11.4673 H        1 ZINC000195883301    0.4000
80     H80     4.9615  -14.4878    9.0285 H        1 ZINC000195883301    0.1100
81     H81     3.3650  -14.4492    9.8147 H        1 ZINC000195883301    0.1000
82     H82     2.4766  -13.0859    7.9437 H        1 ZINC000195883301    0.0700
83     H83     4.0730  -13.1245    7.1575 H        1 ZINC000195883301    0.0800
84     H84     3.2637  -15.7833    7.6597 H        1 ZINC000195883301    0.4000
85     H85     3.3531  -17.4015    6.5909 H        1 ZINC000195883301    0.3700
86     H86     3.0009  -14.4172    3.4610 H        1 ZINC000195883301    0.0600
87     H87     3.4575  -15.5655    2.1799 H        1 ZINC000195883301    0.0800
88     H88     1.7811  -15.5177    2.7760 H        1 ZINC000195883301    0.0500
89     H89     4.8629  -16.9924    5.3496 H        1 ZINC000195883301    0.0500
90     H90     5.2956  -16.3479    3.7479 H        1 ZINC000195883301    0.0800
91     H91     4.7124  -15.2495    5.0213 H        1 ZINC000195883301    0.0400
92     H92     3.2879  -18.6067    4.2746 H        1 ZINC000195883301    0.0600
93     H93     2.0153  -18.0139    3.1804 H        1 ZINC000195883301    0.0500
94     H94     8.7820  -21.0962   -1.1064 H        1 ZINC000195883301    0.0600
95     H95     8.0156  -20.5679   -2.6236 H        1 ZINC000195883301    0.1000
96     H96    11.6311  -20.2023    1.2234 H        1 ZINC000195883301    0.2300
97     H97    15.7017  -18.9458    3.5037 H        1 ZINC000195883301    0.4200
98     H98    16.9608  -17.8676    3.2301 H        1 ZINC000195883301    0.4000
99     H99    15.9988  -15.7765   -0.7066 H        1 ZINC000195883301    0.2000
100    H100   13.5855  -18.4180   -2.9642 H        1 ZINC000195883301    0.3500
@<TRIPOS>BOND
1     1     2     1
2     1     63    1
3     1     64    1
4     1     65    1
5     2     3     1
6     2     66    1
7     2     67    1
8     3     4     1
9     3     68    1
10    3     69    1
11    4     5     1
12    4     70    1
13    4     71    1
14    5     6     1
15    5     7     1
16    5     8     1
17    7     72    1
18    7     73    1
19    7     74    1
20    8     9     2
21    8     10    1
22    10    11    1
23    11    12    1
24    11    75    1
25    11    76    1
26    12    13    1
27    12    77    1
28    12    78    1
29    13    14    am
30    13    79    1
31    14    15    2
32    14    16    1
33    16    17    1
34    16    80    1
35    16    81    1
36    17    18    1
37    17    82    1
38    17    83    1
39    18    19    am
40    18    84    1
41    19    20    2
42    19    21    1
43    21    22    1
44    21    23    1
45    21    24    1
46    23    85    1
47    24    25    1
48    24    26    1
49    24    27    1
50    25    86    1
51    25    87    1
52    25    88    1
53    26    89    1
54    26    90    1
55    26    91    1
56    27    28    1
57    27    92    1
58    27    93    1
59    28    29    1
60    29    30    ar
61    29    31    ar
62    29    32    1
63    32    33    1
64    33    34    ar
65    33    35    ar
66    33    36    1
67    36    37    1
68    37    38    1
69    37    94    1
70    37    95    1
71    38    39    1
72    38    56    1
73    38    40    1
74    40    41    1
75    41    42    1
76    41    43    1
77    41    53    1
78    43    52    1
79    43    44    1
80    44    45    2
81    44    96    1
82    45    46    1
83    46    52    ar
84    46    47    ar
85    47    48    1
86    47    49    ar
87    48    97    1
88    48    98    1
89    49    50    ar
90    50    51    ar
91    50    99    1
92    51    52    ar
93    53    54    1
94    53    55    1
95    53    56    1
96    55    100   1
97    56    57    1
98    56    58    1
99    58    59    1
100   59    60    ar
101   59    61    ar
102   59    62    ar
@<TRIPOS>SUBSTRUCTURE
1   ZINC000195883301 1     RESIDUE    1   A     ZIN   1
@<TRIPOS>MOLECULE
ZINC000196086499
103   105   1     0     0
SMALL
USER_CHARGES
@<TRIPOS>ATOM
1      C1    -10.6405    0.6982   12.3781 C.3      1 ZINC000196086499   -0.1500
2      C2     -9.7767    1.4991   13.3545 C.3      1 ZINC000196086499   -0.1200
3      C3     -8.4834    0.7324   13.6382 C.3      1 ZINC000196086499   -0.1100
4      C4     -7.5625    1.5901   14.5084 C.3      1 ZINC000196086499   -0.1100
5      C5     -8.2032    1.7931   15.8829 C.3      1 ZINC000196086499   -0.1000
6      C6     -7.3629    2.7794   16.6966 C.3      1 ZINC000196086499   -0.1300
7      C7     -8.0702    3.0819   18.0192 C.3      1 ZINC000196086499   -0.1500
8      C8     -6.2347    0.8961   14.6706 C.2      1 ZINC000196086499    0.3300
9      O9     -5.8396    0.5935   15.7771 O.2      1 ZINC000196086499   -0.4400
10     S10    -5.2839    0.5347   13.2936 S.3      1 ZINC000196086499   -0.1200
11     C11    -3.8674   -0.2623   14.0901 C.3      1 ZINC000196086499   -0.1200
12     C12    -2.8538   -0.6841   13.0244 C.3      1 ZINC000196086499    0.1400
13     N13    -1.7073   -1.3292   13.6691 N.am     1 ZINC000196086499   -0.7300
14     C14    -0.6828   -1.7855   12.9218 C.2      1 ZINC000196086499    0.5200
15     O15    -0.7099   -1.6621   11.7156 O.2      1 ZINC000196086499   -0.5300
16     C16     0.4966   -2.4491   13.5849 C.3      1 ZINC000196086499   -0.1500
17     C17     1.5102   -2.8709   12.5193 C.3      1 ZINC000196086499    0.1400
18     N18     2.6567   -3.5160   13.1640 N.am     1 ZINC000196086499   -0.7400
19     C19     3.6813   -3.9723   12.4166 C.2      1 ZINC000196086499    0.5000
20     O20     3.6946   -3.7740   11.2202 O.2      1 ZINC000196086499   -0.5300
21     C21     4.8103   -4.7290   13.0676 C.3      1 ZINC000196086499    0.1000
22     H22     4.9494   -5.6829   12.5587 H        1 ZINC000196086499    0.1400
23     O23     4.4964   -4.9637   14.4419 O.3      1 ZINC000196086499   -0.5500
24     C24     6.0972   -3.9072   12.9715 C.3      1 ZINC000196086499   -0.0900
25     C25     6.5089   -3.7740   11.5040 C.3      1 ZINC000196086499   -0.1400
26     C26     5.8595   -2.5163   13.5628 C.3      1 ZINC000196086499   -0.1400
27     C27     7.2103   -4.6096   13.7517 C.3      1 ZINC000196086499    0.1500
28     O28     8.4123   -3.8420   13.6619 O.3      1 ZINC000196086499   -0.7700
29     P29     9.7902   -4.2849   14.3671 P.3      1 ZINC000196086499    2.2900
30     O30     9.5473   -4.5102   15.8762 O.co2    1 ZINC000196086499   -1.1000
31     O31    10.2989   -5.5954   13.7261 O.co2    1 ZINC000196086499   -1.1100
32     O32    10.8913   -3.1273   14.1678 O.3      1 ZINC000196086499   -1.0900
33     P33    12.3119   -2.8050   14.8535 P.3      1 ZINC000196086499    2.2900
34     O34    12.2254   -3.0802   16.3713 O.co2    1 ZINC000196086499   -1.1000
35     O35    13.4014   -3.7045   14.2283 O.co2    1 ZINC000196086499   -1.1000
36     O36    12.6873   -1.2586   14.6090 O.3      1 ZINC000196086499   -0.7700
37     C37    13.8390   -0.6372   15.1830 C.3      1 ZINC000196086499    0.1400
38     C38    13.8961    0.8293   14.7504 C.3      1 ZINC000196086499    0.0700
39     H39    13.8554    0.9055   13.6638 H        1 ZINC000196086499    0.1000
40     O40    12.8110    1.5722   15.3475 O.3      1 ZINC000196086499   -0.3500
41     C41    13.2248    2.9551   15.2990 C.3      1 ZINC000196086499    0.2600
42     H42    13.0823    3.3589   14.2967 H        1 ZINC000196086499    0.1200
43     N43    12.4751    3.7463   16.2779 N.pl3    1 ZINC000196086499   -0.4500
44     C44    11.8762    3.2743   17.4079 C.2      1 ZINC000196086499    0.2900
45     N45    11.2989    4.2506   18.0461 N.2      1 ZINC000196086499   -0.4800
46     C46    11.4901    5.4078   17.3683 C.ar     1 ZINC000196086499   -0.1000
47     C47    11.1095    6.7454   17.5695 C.ar     1 ZINC000196086499    0.5000
48     N48    10.3640    7.1104   18.6768 N.pl3    1 ZINC000196086499   -0.8300
49     N49    11.4826    7.6518   16.6719 N.ar     1 ZINC000196086499   -0.6000
50     C50    12.1943    7.3127   15.6127 C.ar     1 ZINC000196086499    0.3400
51     N51    12.5729    6.0729   15.3831 N.ar     1 ZINC000196086499   -0.5400
52     C52    12.2522    5.0992   16.2287 C.ar     1 ZINC000196086499    0.2900
53     C53    14.7265    2.9307   15.6605 C.3      1 ZINC000196086499    0.0600
54     H54    14.8659    3.1121   16.7262 H        1 ZINC000196086499    0.0700
55     O55    15.4425    3.8990   14.8912 O.3      1 ZINC000196086499   -0.5000
56     C56    15.1798    1.4992   15.2887 C.3      1 ZINC000196086499    0.1500
57     H57    15.5427    0.9723   16.1711 H        1 ZINC000196086499    0.0800
58     O58    16.1914    1.5404   14.2803 O.3      1 ZINC000196086499   -0.7200
59     P59    17.6577    0.9069   14.4828 P.3      1 ZINC000196086499    2.1200
60     O60    18.3145    1.5116   15.7702 O.co2    1 ZINC000196086499   -1.1900
61     O61    17.5381   -0.6474   14.6383 O.co2    1 ZINC000196086499   -1.1700
62     O62    18.5471    1.2403   13.2369 O.co2    1 ZINC000196086499   -1.1700
63     H63   -10.8810   -0.2705   12.8160 H        1 ZINC000196086499    0.0500
64     H64   -11.5619    1.2444   12.1759 H        1 ZINC000196086499    0.0500
65     H65   -10.0941    0.5503   11.4466 H        1 ZINC000196086499    0.0600
66     H66    -9.5362    2.4678   12.9165 H        1 ZINC000196086499    0.0700
67     H67   -10.3232    1.6470   14.2859 H        1 ZINC000196086499    0.0700
68     H68    -8.7178   -0.1947   14.1612 H        1 ZINC000196086499    0.0700
69     H69    -7.9835    0.5024   12.6972 H        1 ZINC000196086499    0.0800
70     H70    -7.4105    2.5586   14.0318 H        1 ZINC000196086499    0.1100
71     H71    -9.2108    2.1900   15.7591 H        1 ZINC000196086499    0.0700
72     H72    -8.2507    0.8381   16.4062 H        1 ZINC000196086499    0.0700
73     H73    -6.3850    2.3427   16.8992 H        1 ZINC000196086499    0.0700
74     H74    -7.2384    3.7031   16.1315 H        1 ZINC000196086499    0.0600
75     H75    -9.0481    3.5186   17.8166 H        1 ZINC000196086499    0.0500
76     H76    -8.1947    2.1582   18.5842 H        1 ZINC000196086499    0.0500
77     H77    -7.4715    3.7846   18.5989 H        1 ZINC000196086499    0.0500
78     H78    -3.3979    0.4377   14.7812 H        1 ZINC000196086499    0.1000
79     H79    -4.2060   -1.1418   14.6378 H        1 ZINC000196086499    0.1000
80     H80    -3.3233   -1.3841   12.3333 H        1 ZINC000196086499    0.0800
81     H81    -2.5153    0.1953   12.4767 H        1 ZINC000196086499    0.0800
82     H82    -1.6856   -1.4279   14.6338 H        1 ZINC000196086499    0.4000
83     H83     0.9661   -1.7491   14.2761 H        1 ZINC000196086499    0.1100
84     H84     0.1580   -3.3286   14.1327 H        1 ZINC000196086499    0.1000
85     H85     1.0407   -3.5709   11.8282 H        1 ZINC000196086499    0.0700
86     H86     1.8488   -1.9915   11.9715 H        1 ZINC000196086499    0.0800
87     H87     2.6784   -3.6147   14.1287 H        1 ZINC000196086499    0.4000
88     H88     4.3591   -4.1570   14.9572 H        1 ZINC000196086499    0.3700
89     H89     5.7864   -3.1488   10.9793 H        1 ZINC000196086499    0.0600
90     H90     7.4965   -3.3168   11.4437 H        1 ZINC000196086499    0.0800
91     H91     6.5370   -4.7615   11.0434 H        1 ZINC000196086499    0.0500
92     H92     5.5662   -2.6112   14.6083 H        1 ZINC000196086499    0.0500
93     H93     6.7763   -1.9308   13.4943 H        1 ZINC000196086499    0.0800
94     H94     5.0665   -2.0159   13.0070 H        1 ZINC000196086499    0.0400
95     H95     6.9170   -4.7045   14.7972 H        1 ZINC000196086499    0.0600
96     H96     7.3797   -5.6005   13.3305 H        1 ZINC000196086499    0.0500
97     H97    13.7785   -0.6933   16.2698 H        1 ZINC000196086499    0.0600
98     H98    14.7374   -1.1518   14.8421 H        1 ZINC000196086499    0.1000
99     H99    11.8797    2.2423   17.7262 H        1 ZINC000196086499    0.2300
100    H100   10.0980    6.4397   19.3250 H        1 ZINC000196086499    0.4200
101    H101   10.1074    8.0371   18.8047 H        1 ZINC000196086499    0.4000
102    H102   12.4762    8.0812   14.9082 H        1 ZINC000196086499    0.2000
103    H103   15.1562    4.8104   15.0414 H        1 ZINC000196086499    0.3500
@<TRIPOS>BOND
1     1     2     1
2     1     63    1
3     1     64    1
4     1     65    1
5     2     3     1
6     2     66    1
7     2     67    1
8     3     4     1
9     3     68    1
10    3     69    1
11    4     5     1
12    4     8     1
13    4     70    1
14    5     6     1
15    5     71    1
16    5     72    1
17    6     7     1
18    6     73    1
19    6     74    1
20    7     75    1
21    7     76    1
22    7     77    1
23    8     9     2
24    8     10    1
25    10    11    1
26    11    12    1
27    11    78    1
28    11    79    1
29    12    13    1
30    12    80    1
31    12    81    1
32    13    14    am
33    13    82    1
34    14    15    2
35    14    16    1
36    16    17    1
37    16    83    1
38    16    84    1
39    17    18    1
40    17    85    1
41    17    86    1
42    18    19    am
43    18    87    1
44    19    20    2
45    19    21    1
46    21    22    1
47    21    23    1
48    21    24    1
49    23    88    1
50    24    25    1
51    24    26    1
52    24    27    1
53    25    89    1
54    25    90    1
55    25    91    1
56    26    92    1
57    26    93    1
58    26    94    1
59    27    28    1
60    27    95    1
61    27    96    1
62    28    29    1
63    29    30    ar
64    29    31    ar
65    29    32    1
66    32    33    1
67    33    34    ar
68    33    35    ar
69    33    36    1
70    36    37    1
71    37    38    1
72    37    97    1
73    37    98    1
74    38    39    1
75    38    56    1
76    38    40    1
77    40    41    1
78    41    42    1
79    41    43    1
80    41    53    1
81    43    52    1
82    43    44    1
83    44    45    2
84    44    99    1
85    45    46    1
86    46    52    ar
87    46    47    ar
88    47    48    1
89    47    49    ar
90    48    100   1
91    48    101   1
92    49    50    ar
93    50    51    ar
94    50    102   1
95    51    52    ar
96    53    54    1
97    53    55    1
98    53    56    1
99    55    103   1
100   56    57    1
101   56    58    1
102   58    59    1
103   59    60    ar
104   59    61    ar
105   59    62    ar
@<TRIPOS>SUBSTRUCTURE
1   ZINC000196086499 1     RESIDUE    1   A     ZIN   1
@<TRIPOS>MOLECULE
ZINC000196105913
96    99    1     0     0
SMALL
USER_CHARGES
@<TRIPOS>ATOM
1      C1     -0.0985    1.3509    0.2822 C.3      1 ZINC000196105913   -0.1500
2      C2     -0.1133   -0.1556    0.0155 C.3      1 ZINC000196105913   -0.1000
3      C3      0.5901   -0.8836    1.1627 C.3      1 ZINC000196105913   -0.1300
4      C4     -1.5606   -0.6414   -0.0855 C.3      1 ZINC000196105913    0.1400
5      O5     -2.2415   -0.3681    1.1407 O.3      1 ZINC000196105913   -0.7600
6      P6     -3.7866   -0.7464    1.3890 P.3      1 ZINC000196105913    2.2900
7      O7     -4.6557   -0.1184    0.2767 O.co2    1 ZINC000196105913   -1.1000
8      O8     -3.9509   -2.2825    1.3654 O.co2    1 ZINC000196105913   -1.1100
9      O9     -4.2548   -0.1785    2.8209 O.3      1 ZINC000196105913   -1.0900
10     P10    -5.6875    0.0547    3.5174 P.3      1 ZINC000196105913    2.2900
11     O11    -6.6844    0.6047    2.4731 O.co2    1 ZINC000196105913   -1.1000
12     O12    -6.2135   -1.2867    4.0750 O.co2    1 ZINC000196105913   -1.1000
13     O13    -5.5331    1.1127    4.7211 O.3      1 ZINC000196105913   -0.7700
14     C14    -6.6453    1.6085    5.4689 C.3      1 ZINC000196105913    0.1400
15     C15    -6.1483    2.5907    6.5316 C.3      1 ZINC000196105913    0.0700
16     H16    -5.3807    2.1241    7.1491 H        1 ZINC000196105913    0.1000
17     O17    -5.6334    3.7875    5.9084 O.3      1 ZINC000196105913   -0.3500
18     C18    -5.6655    4.7977    6.9401 C.3      1 ZINC000196105913    0.2600
19     H19    -4.8245    4.6707    7.6218 H        1 ZINC000196105913    0.1200
20     N20    -5.6403    6.1359    6.3445 N.pl3    1 ZINC000196105913   -0.4500
21     C21    -6.0404    6.4653    5.0836 C.2      1 ZINC000196105913    0.2900
22     N22    -5.8814    7.7417    4.8859 N.2      1 ZINC000196105913   -0.4800
23     C23    -5.3706    8.3110    6.0040 C.ar     1 ZINC000196105913   -0.1000
24     C24    -5.0011    9.6170    6.3675 C.ar     1 ZINC000196105913    0.5000
25     N25    -5.1372   10.6657    5.4748 N.pl3    1 ZINC000196105913   -0.8300
26     N26    -4.5183    9.8219    7.5887 N.ar     1 ZINC000196105913   -0.6000
27     C27    -4.3854    8.8274    8.4472 C.ar     1 ZINC000196105913    0.3400
28     N28    -4.7178    7.5886    8.1506 N.ar     1 ZINC000196105913   -0.5400
29     C29    -5.2153    7.2885    6.9554 C.ar     1 ZINC000196105913    0.2900
30     C30    -6.9997    4.5617    7.6821 C.3      1 ZINC000196105913    0.0600
31     H31    -7.7809    5.2049    7.2771 H        1 ZINC000196105913    0.0700
32     O32    -6.8406    4.7912    9.0836 O.3      1 ZINC000196105913   -0.5000
33     C33    -7.3241    3.0741    7.4091 C.3      1 ZINC000196105913    0.1500
34     H34    -8.2659    2.9817    6.8681 H        1 ZINC000196105913    0.0800
35     O35    -7.3778    2.3403    8.6341 O.3      1 ZINC000196105913   -0.7200
36     P36    -8.6839    1.5312    9.1151 P.3      1 ZINC000196105913    2.1200
37     O37    -9.9162    2.4982    9.1433 O.co2    1 ZINC000196105913   -1.1900
38     O38    -8.9658    0.3550    8.1193 O.co2    1 ZINC000196105913   -1.1700
39     O39    -8.4408    0.9530   10.5508 O.co2    1 ZINC000196105913   -1.1700
40     C40     0.6157   -0.4483   -1.2974 C.3      1 ZINC000196105913    0.1100
41     H41     1.6142   -0.0124   -1.2635 H        1 ZINC000196105913    0.1200
42     O42     0.7190   -1.8618   -1.4801 O.3      1 ZINC000196105913   -0.5400
43     C43    -0.1555    0.1515   -2.4448 C.2      1 ZINC000196105913    0.4900
44     O44    -0.7013   -0.5707   -3.2519 O.2      1 ZINC000196105913   -0.5200
45     N45    -0.2388    1.4905   -2.5740 N.am     1 ZINC000196105913   -0.7300
46     C46    -1.0675    2.0742   -3.6317 C.3      1 ZINC000196105913    0.1300
47     C47    -0.9878    3.6004   -3.5583 C.3      1 ZINC000196105913   -0.1500
48     C48    -1.8403    4.2008   -4.6463 C.2      1 ZINC000196105913    0.5200
49     O49    -2.4515    3.4791   -5.4056 O.2      1 ZINC000196105913   -0.5200
50     N50    -1.9236    5.5398   -4.7755 N.am     1 ZINC000196105913   -0.7300
51     C51    -2.7523    6.1235   -5.8332 C.3      1 ZINC000196105913    0.1300
52     C52    -2.6726    7.6497   -5.7598 C.3      1 ZINC000196105913   -0.1200
53     S53    -3.6965    8.3708   -7.0665 S.3      1 ZINC000196105913   -0.1100
54     C54    -3.4343   10.0356   -6.7650 C.2      1 ZINC000196105913    0.3300
55     O55    -2.7095   10.3805   -5.8552 O.2      1 ZINC000196105913   -0.4400
56     C56    -4.1038   11.0725   -7.6296 C.3      1 ZINC000196105913   -0.1100
57     C57    -3.7113   12.4490   -7.1582 C.ar     1 ZINC000196105913   -0.0800
58     C58    -4.4677   13.0904   -6.1948 C.ar     1 ZINC000196105913   -0.0900
59     C59    -4.1100   14.3522   -5.7610 C.ar     1 ZINC000196105913   -0.1400
60     C60    -2.9905   14.9757   -6.2926 C.ar     1 ZINC000196105913    0.1000
61     O61    -2.6362   16.2168   -5.8672 O.3      1 ZINC000196105913   -0.5000
62     C62    -2.2329   14.3299   -7.2589 C.ar     1 ZINC000196105913   -0.1500
63     C63    -2.5921   13.0661   -7.6858 C.ar     1 ZINC000196105913   -0.0900
64     H64     0.9273    1.7171    0.2410 H        1 ZINC000196105913    0.0500
65     H65    -0.6966    1.8597   -0.4738 H        1 ZINC000196105913    0.0600
66     H66    -0.5157    1.5492    1.2695 H        1 ZINC000196105913    0.0800
67     H67     0.0362   -0.7245    2.0879 H        1 ZINC000196105913    0.0800
68     H68     0.6331   -1.9505    0.9439 H        1 ZINC000196105913    0.0600
69     H69     1.6022   -0.4943    1.2737 H        1 ZINC000196105913    0.0500
70     H70    -2.0617   -0.1228   -0.9028 H        1 ZINC000196105913    0.0500
71     H71    -1.5712   -1.7147   -0.2755 H        1 ZINC000196105913    0.0500
72     H72    -7.3362    2.1185    4.7976 H        1 ZINC000196105913    0.0600
73     H73    -7.1569    0.7770    5.9537 H        1 ZINC000196105913    0.1000
74     H74    -6.4312    5.7695    4.3559 H        1 ZINC000196105913    0.2300
75     H75    -5.4912   10.5036    4.5864 H        1 ZINC000196105913    0.4200
76     H76    -4.8786   11.5629    5.7376 H        1 ZINC000196105913    0.4000
77     H77    -3.9887    9.0381    9.4294 H        1 ZINC000196105913    0.2000
78     H78    -6.5780    5.6946    9.3069 H        1 ZINC000196105913    0.3500
79     H79    -0.1335   -2.3166   -1.5195 H        1 ZINC000196105913    0.3900
80     H80     0.2500    2.0677   -1.9666 H        1 ZINC000196105913    0.4000
81     H81    -0.7064    1.7378   -4.6035 H        1 ZINC000196105913    0.0700
82     H82    -2.1021    1.7576   -3.4990 H        1 ZINC000196105913    0.0900
83     H83    -1.3490    3.9367   -2.5864 H        1 ZINC000196105913    0.1100
84     H84     0.0467    3.9170   -3.6909 H        1 ZINC000196105913    0.1000
85     H85    -1.4348    6.1170   -4.1681 H        1 ZINC000196105913    0.4000
86     H86    -2.3912    5.7871   -6.8050 H        1 ZINC000196105913    0.0800
87     H87    -3.7869    5.8069   -5.7005 H        1 ZINC000196105913    0.0800
88     H88    -3.0338    7.9860   -4.7879 H        1 ZINC000196105913    0.1100
89     H89    -1.6381    7.9663   -5.8924 H        1 ZINC000196105913    0.1000
90     H90    -3.7900   10.9398   -8.6650 H        1 ZINC000196105913    0.1100
91     H91    -5.1857   10.9596   -7.5605 H        1 ZINC000196105913    0.1200
92     H92    -5.3391   12.6046   -5.7813 H        1 ZINC000196105913    0.1300
93     H93    -4.7016   14.8531   -5.0090 H        1 ZINC000196105913    0.1300
94     H94    -2.0330   16.2163   -5.1114 H        1 ZINC000196105913    0.3900
95     H95    -1.3611   14.8133   -7.6744 H        1 ZINC000196105913    0.1300
96     H96    -2.0025   12.5628   -8.4377 H        1 ZINC000196105913    0.1300
@<TRIPOS>BOND
1     1     2     1
2     1     64    1
3     1     65    1
4     1     66    1
5     2     3     1
6     2     4     1
7     2     40    1
8     3     67    1
9     3     68    1
10    3     69    1
11    4     5     1
12    4     70    1
13    4     71    1
14    5     6     1
15    6     7     ar
16    6     8     ar
17    6     9     1
18    9     10    1
19    10    11    ar
20    10    12    ar
21    10    13    1
22    13    14    1
23    14    15    1
24    14    72    1
25    14    73    1
26    15    16    1
27    15    33    1
28    15    17    1
29    17    18    1
30    18    19    1
31    18    20    1
32    18    30    1
33    20    29    1
34    20    21    1
35    21    22    2
36    21    74    1
37    22    23    1
38    23    29    ar
39    23    24    ar
40    24    25    1
41    24    26    ar
42    25    75    1
43    25    76    1
44    26    27    ar
45    27    28    ar
46    27    77    1
47    28    29    ar
48    30    31    1
49    30    32    1
50    30    33    1
51    32    78    1
52    33    34    1
53    33    35    1
54    35    36    1
55    36    37    ar
56    36    38    ar
57    36    39    ar
58    40    41    1
59    40    42    1
60    40    43    1
61    42    79    1
62    43    44    2
63    43    45    am
64    45    46    1
65    45    80    1
66    46    47    1
67    46    81    1
68    46    82    1
69    47    48    1
70    47    83    1
71    47    84    1
72    48    49    2
73    48    50    am
74    50    51    1
75    50    85    1
76    51    52    1
77    51    86    1
78    51    87    1
79    52    53    1
80    52    88    1
81    52    89    1
82    53    54    1
83    54    55    2
84    54    56    1
85    56    57    1
86    56    90    1
87    56    91    1
88    57    63    ar
89    57    58    ar
90    58    59    ar
91    58    92    1
92    59    60    ar
93    59    93    1
94    60    61    1
95    60    62    ar
96    61    94    1
97    62    63    ar
98    62    95    1
99    63    96    1
@<TRIPOS>SUBSTRUCTURE
1   ZINC000196105913 1     RESIDUE    1   A     ZIN   1
@<TRIPOS>MOLECULE
ZINC000197381912
87    89    1     0     0
SMALL
USER_CHARGES
@<TRIPOS>ATOM
1      C1     -0.0985    1.3509    0.2822 C.3      1 ZINC000197381912   -0.1500
2      C2     -0.1133   -0.1556    0.0155 C.3      1 ZINC000197381912   -0.1000
3      C3      0.5901   -0.8836    1.1627 C.3      1 ZINC000197381912   -0.1300
4      C4     -1.5606   -0.6414   -0.0855 C.3      1 ZINC000197381912    0.1400
5      O5     -2.2415   -0.3681    1.1407 O.3      1 ZINC000197381912   -0.7600
6      P6     -3.7866   -0.7464    1.3890 P.3      1 ZINC000197381912    2.2900
7      O7     -4.6557   -0.1184    0.2767 O.co2    1 ZINC000197381912   -1.1000
8      O8     -3.9509   -2.2825    1.3654 O.co2    1 ZINC000197381912   -1.1100
9      O9     -4.2548   -0.1785    2.8209 O.3      1 ZINC000197381912   -1.0900
10     P10    -5.6875    0.0547    3.5174 P.3      1 ZINC000197381912    2.2900
11     O11    -6.6844    0.6047    2.4731 O.co2    1 ZINC000197381912   -1.1000
12     O12    -6.2135   -1.2867    4.0750 O.co2    1 ZINC000197381912   -1.1000
13     O13    -5.5331    1.1127    4.7211 O.3      1 ZINC000197381912   -0.7700
14     C14    -6.6453    1.6085    5.4689 C.3      1 ZINC000197381912    0.1400
15     C15    -6.1483    2.5907    6.5316 C.3      1 ZINC000197381912    0.0700
16     H16    -5.3807    2.1241    7.1491 H        1 ZINC000197381912    0.1000
17     O17    -5.6334    3.7875    5.9084 O.3      1 ZINC000197381912   -0.3500
18     C18    -5.6655    4.7977    6.9401 C.3      1 ZINC000197381912    0.2600
19     H19    -4.8245    4.6707    7.6218 H        1 ZINC000197381912    0.1200
20     N20    -5.6403    6.1359    6.3445 N.pl3    1 ZINC000197381912   -0.4500
21     C21    -6.0404    6.4653    5.0836 C.2      1 ZINC000197381912    0.2900
22     N22    -5.8814    7.7417    4.8859 N.2      1 ZINC000197381912   -0.4800
23     C23    -5.3706    8.3110    6.0040 C.ar     1 ZINC000197381912   -0.1000
24     C24    -5.0011    9.6170    6.3675 C.ar     1 ZINC000197381912    0.5000
25     N25    -5.1372   10.6657    5.4748 N.pl3    1 ZINC000197381912   -0.8300
26     N26    -4.5183    9.8219    7.5887 N.ar     1 ZINC000197381912   -0.6000
27     C27    -4.3854    8.8274    8.4472 C.ar     1 ZINC000197381912    0.3400
28     N28    -4.7178    7.5886    8.1506 N.ar     1 ZINC000197381912   -0.5400
29     C29    -5.2153    7.2885    6.9554 C.ar     1 ZINC000197381912    0.2900
30     C30    -6.9997    4.5617    7.6821 C.3      1 ZINC000197381912    0.0600
31     H31    -7.7809    5.2049    7.2771 H        1 ZINC000197381912    0.0700
32     O32    -6.8406    4.7912    9.0836 O.3      1 ZINC000197381912   -0.5000
33     C33    -7.3241    3.0741    7.4091 C.3      1 ZINC000197381912    0.1500
34     H34    -8.2659    2.9817    6.8681 H        1 ZINC000197381912    0.0800
35     O35    -7.3778    2.3403    8.6341 O.3      1 ZINC000197381912   -0.7200
36     P36    -8.6839    1.5312    9.1151 P.3      1 ZINC000197381912    2.1200
37     O37    -9.9162    2.4982    9.1433 O.co2    1 ZINC000197381912   -1.1900
38     O38    -8.9658    0.3550    8.1193 O.co2    1 ZINC000197381912   -1.1700
39     O39    -8.4408    0.9530   10.5508 O.co2    1 ZINC000197381912   -1.1700
40     C40     0.6157   -0.4483   -1.2974 C.3      1 ZINC000197381912    0.1100
41     H41     1.6142   -0.0124   -1.2635 H        1 ZINC000197381912    0.1200
42     O42     0.7190   -1.8618   -1.4801 O.3      1 ZINC000197381912   -0.5400
43     C43    -0.1555    0.1515   -2.4448 C.2      1 ZINC000197381912    0.4900
44     O44    -0.7013   -0.5707   -3.2519 O.2      1 ZINC000197381912   -0.5200
45     N45    -0.2388    1.4905   -2.5740 N.am     1 ZINC000197381912   -0.7300
46     C46    -1.0675    2.0742   -3.6317 C.3      1 ZINC000197381912    0.1300
47     C47    -0.9878    3.6004   -3.5583 C.3      1 ZINC000197381912   -0.1500
48     C48    -1.8403    4.2008   -4.6463 C.2      1 ZINC000197381912    0.5200
49     O49    -2.4515    3.4791   -5.4056 O.2      1 ZINC000197381912   -0.5200
50     N50    -1.9236    5.5398   -4.7755 N.am     1 ZINC000197381912   -0.7300
51     C51    -2.7523    6.1235   -5.8332 C.3      1 ZINC000197381912    0.1300
52     C52    -2.6726    7.6497   -5.7598 C.3      1 ZINC000197381912   -0.1200
53     S53    -3.6965    8.3708   -7.0665 S.3      1 ZINC000197381912   -0.0900
54     C54    -3.4343   10.0356   -6.7650 C.2      1 ZINC000197381912    0.3300
55     O55    -2.7095   10.3805   -5.8552 O.2      1 ZINC000197381912   -0.4500
56     C56    -4.1038   11.0725   -7.6296 C.3      1 ZINC000197381912   -0.2200
57     C57    -3.7113   12.4490   -7.1582 C.2      1 ZINC000197381912    0.3700
58     O58    -3.2202   13.2351   -7.9323 O.2      1 ZINC000197381912   -0.4600
59     H59     0.9273    1.7171    0.2410 H        1 ZINC000197381912    0.0500
60     H60    -0.6966    1.8597   -0.4738 H        1 ZINC000197381912    0.0600
61     H61    -0.5157    1.5492    1.2695 H        1 ZINC000197381912    0.0800
62     H62     0.0362   -0.7245    2.0879 H        1 ZINC000197381912    0.0800
63     H63     0.6331   -1.9505    0.9439 H        1 ZINC000197381912    0.0600
64     H64     1.6022   -0.4943    1.2737 H        1 ZINC000197381912    0.0500
65     H65    -2.0617   -0.1228   -0.9028 H        1 ZINC000197381912    0.0500
66     H66    -1.5712   -1.7147   -0.2755 H        1 ZINC000197381912    0.0500
67     H67    -7.3362    2.1185    4.7976 H        1 ZINC000197381912    0.0600
68     H68    -7.1569    0.7770    5.9537 H        1 ZINC000197381912    0.1000
69     H69    -6.4312    5.7695    4.3559 H        1 ZINC000197381912    0.2300
70     H70    -5.4912   10.5036    4.5864 H        1 ZINC000197381912    0.4200
71     H71    -4.8786   11.5629    5.7376 H        1 ZINC000197381912    0.4000
72     H72    -3.9887    9.0381    9.4294 H        1 ZINC000197381912    0.2000
73     H73    -6.5780    5.6946    9.3069 H        1 ZINC000197381912    0.3500
74     H74    -0.1335   -2.3166   -1.5195 H        1 ZINC000197381912    0.3900
75     H75     0.2500    2.0677   -1.9666 H        1 ZINC000197381912    0.4000
76     H76    -0.7064    1.7378   -4.6035 H        1 ZINC000197381912    0.0700
77     H77    -2.1021    1.7576   -3.4990 H        1 ZINC000197381912    0.0900
78     H78    -1.3490    3.9367   -2.5864 H        1 ZINC000197381912    0.1100
79     H79     0.0467    3.9170   -3.6909 H        1 ZINC000197381912    0.1000
80     H80    -1.4348    6.1170   -4.1681 H        1 ZINC000197381912    0.4000
81     H81    -2.3912    5.7871   -6.8050 H        1 ZINC000197381912    0.0800
82     H82    -3.7869    5.8069   -5.7005 H        1 ZINC000197381912    0.0800
83     H83    -3.0338    7.9860   -4.7879 H        1 ZINC000197381912    0.1100
84     H84    -1.6381    7.9663   -5.8924 H        1 ZINC000197381912    0.1000
85     H85    -3.7900   10.9398   -8.6650 H        1 ZINC000197381912    0.1300
86     H86    -5.1857   10.9596   -7.5605 H        1 ZINC000197381912    0.1400
87     H87    -3.8692   12.7325   -6.1281 H        1 ZINC000197381912    0.1100
@<TRIPOS>BOND
1     1     2     1
2     1     59    1
3     1     60    1
4     1     61    1
5     2     3     1
6     2     4     1
7     2     40    1
8     3     62    1
9     3     63    1
10    3     64    1
11    4     5     1
12    4     65    1
13    4     66    1
14    5     6     1
15    6     7     ar
16    6     8     ar
17    6     9     1
18    9     10    1
19    10    11    ar
20    10    12    ar
21    10    13    1
22    13    14    1
23    14    15    1
24    14    67    1
25    14    68    1
26    15    16    1
27    15    33    1
28    15    17    1
29    17    18    1
30    18    19    1
31    18    20    1
32    18    30    1
33    20    29    1
34    20    21    1
35    21    22    2
36    21    69    1
37    22    23    1
38    23    29    ar
39    23    24    ar
40    24    25    1
41    24    26    ar
42    25    70    1
43    25    71    1
44    26    27    ar
45    27    28    ar
46    27    72    1
47    28    29    ar
48    30    31    1
49    30    32    1
50    30    33    1
51    32    73    1
52    33    34    1
53    33    35    1
54    35    36    1
55    36    37    ar
56    36    38    ar
57    36    39    ar
58    40    41    1
59    40    42    1
60    40    43    1
61    42    74    1
62    43    44    2
63    43    45    am
64    45    46    1
65    45    75    1
66    46    47    1
67    46    76    1
68    46    77    1
69    47    48    1
70    47    78    1
71    47    79    1
72    48    49    2
73    48    50    am
74    50    51    1
75    50    80    1
76    51    52    1
77    51    81    1
78    51    82    1
79    52    53    1
80    52    83    1
81    52    84    1
82    53    54    1
83    54    55    2
84    54    56    1
85    56    57    1
86    56    85    1
87    56    86    1
88    57    58    2
89    57    87    1
@<TRIPOS>SUBSTRUCTURE
1   ZINC000197381912 1     RESIDUE    1   A     ZIN   1
@<TRIPOS>MOLECULE
ZINC000199604898
106   108   1     0     0
SMALL
USER_CHARGES
@<TRIPOS>ATOM
1      C1     -2.0995  -26.5565   -0.0679 C.3      1 ZINC000199604898   -0.1500
2      C2     -1.8883  -25.0467   -0.1973 C.3      1 ZINC000199604898   -0.1000
3      C3     -1.3319  -24.7268   -1.5862 C.3      1 ZINC000199604898   -0.1500
4      C4     -3.2244  -24.3265   -0.0049 C.3      1 ZINC000199604898   -0.1200
5      C5     -2.9939  -22.8139   -0.0100 C.3      1 ZINC000199604898   -0.1200
6      C6     -4.3300  -22.0937    0.1824 C.3      1 ZINC000199604898   -0.1000
7      C7     -4.0994  -20.5812    0.1772 C.3      1 ZINC000199604898   -0.1100
8      H8     -3.5797  -20.2960   -0.7374 H        1 ZINC000199604898    0.1100
9      C9     -3.2509  -20.1905    1.3889 C.3      1 ZINC000199604898   -0.1500
10     C10    -5.4267  -19.8705    0.2433 C.2      1 ZINC000199604898    0.3300
11     O11    -6.4561  -20.5110    0.2900 O.2      1 ZINC000199604898   -0.4500
12     S12    -5.4820  -18.1595    0.2526 S.3      1 ZINC000199604898   -0.1200
13     C13    -7.2717  -17.9033    0.3390 C.3      1 ZINC000199604898   -0.1200
14     C14    -7.5717  -16.4031    0.3591 C.3      1 ZINC000199604898    0.1400
15     N15    -9.0203  -16.1957    0.4291 N.am     1 ZINC000199604898   -0.7300
16     C16    -9.5214  -14.9449    0.4578 C.2      1 ZINC000199604898    0.5200
17     O17    -8.7731  -13.9910    0.4258 O.2      1 ZINC000199604898   -0.5300
18     C18   -11.0115  -14.7316    0.5298 C.3      1 ZINC000199604898   -0.1500
19     C19   -11.3115  -13.2315    0.5499 C.3      1 ZINC000199604898    0.1400
20     N20   -12.7601  -13.0241    0.6198 N.am     1 ZINC000199604898   -0.7400
21     C21   -13.2612  -11.7733    0.6486 C.2      1 ZINC000199604898    0.5000
22     O22   -12.5123  -10.8213    0.7106 O.2      1 ZINC000199604898   -0.5300
23     C23   -14.7520  -11.5576    0.6038 C.3      1 ZINC000199604898    0.1000
24     H24   -15.0415  -10.8571    1.3871 H        1 ZINC000199604898    0.1400
25     O25   -15.4200  -12.8041    0.8087 O.3      1 ZINC000199604898   -0.5500
26     C26   -15.1440  -10.9872   -0.7608 C.3      1 ZINC000199604898   -0.0900
27     C27   -14.5484   -9.5867   -0.9183 C.3      1 ZINC000199604898   -0.1400
28     C28   -14.6069  -11.8972   -1.8673 C.3      1 ZINC000199604898   -0.1400
29     C29   -16.6686  -10.9073   -0.8613 C.3      1 ZINC000199604898    0.1500
30     O30   -17.0347  -10.3746   -2.1357 O.3      1 ZINC000199604898   -0.7700
31     P31   -18.5641  -10.1509   -2.5861 P.3      1 ZINC000199604898    2.2900
32     O32   -19.3415  -11.4788   -2.4467 O.co2    1 ZINC000199604898   -1.1000
33     O33   -19.2142   -9.0766   -1.6859 O.co2    1 ZINC000199604898   -1.1100
34     O34   -18.6061   -9.6630   -4.1198 O.3      1 ZINC000199604898   -1.0900
35     P35   -19.7672   -9.5644   -5.2307 P.3      1 ZINC000199604898    2.2800
36     O36   -20.6791  -10.8079   -5.1343 O.co2    1 ZINC000199604898   -1.1000
37     O37   -20.6064   -8.2903   -4.9869 O.co2    1 ZINC000199604898   -1.1000
38     O38   -19.1037   -9.4978   -6.6961 O.3      1 ZINC000199604898   -0.7800
39     C39   -19.8732   -9.5097   -7.9002 C.3      1 ZINC000199604898    0.1500
40     C40   -18.9345   -9.4350   -9.1061 C.3      1 ZINC000199604898    0.0700
41     H41   -18.2742   -8.5721   -9.0191 H        1 ZINC000199604898    0.0800
42     O42   -18.1619  -10.6501   -9.2179 O.3      1 ZINC000199604898   -0.3500
43     C43   -17.7138  -10.6911  -10.5903 C.3      1 ZINC000199604898    0.2600
44     H44   -16.8663  -10.0207  -10.7329 H        1 ZINC000199604898    0.1100
45     N45   -17.3498  -12.0591  -10.9672 N.pl3    1 ZINC000199604898   -0.4500
46     C46   -17.8065  -13.2046  -10.3861 C.2      1 ZINC000199604898    0.3100
47     N47   -17.2777  -14.2407  -10.9696 N.2      1 ZINC000199604898   -0.4900
48     C48   -16.4504  -13.8273  -11.9595 C.ar     1 ZINC000199604898   -0.1000
49     C49   -15.6315  -14.4767  -12.8986 C.ar     1 ZINC000199604898    0.5000
50     N50   -15.5555  -15.8579  -12.9366 N.pl3    1 ZINC000199604898   -0.8300
51     N51   -14.9319  -13.7335  -13.7500 N.ar     1 ZINC000199604898   -0.6000
52     C52   -14.9985  -12.4150  -13.7214 C.ar     1 ZINC000199604898    0.3400
53     N53   -15.7512  -11.7641  -12.8596 N.ar     1 ZINC000199604898   -0.5400
54     C54   -16.4912  -12.4227  -11.9738 C.ar     1 ZINC000199604898    0.2900
55     C55   -18.9266  -10.2079  -11.4161 C.3      1 ZINC000199604898    0.0600
56     H56   -18.5975   -9.5947  -12.2551 H        1 ZINC000199604898    0.0800
57     O57   -19.6915  -11.3217  -11.8812 O.3      1 ZINC000199604898   -0.4900
58     C58   -19.7482   -9.3595  -10.4170 C.3      1 ZINC000199604898    0.1500
59     H59   -19.8245   -8.3289  -10.7636 H        1 ZINC000199604898    0.0800
60     O60   -21.0488   -9.9223  -10.2334 O.3      1 ZINC000199604898   -0.7100
61     P61   -22.4060   -9.1123  -10.5398 P.3      1 ZINC000199604898    2.1200
62     O62   -22.4055   -7.7687   -9.7341 O.co2    1 ZINC000199604898   -1.1800
63     O63   -22.4941   -8.8019  -12.0729 O.co2    1 ZINC000199604898   -1.1900
64     O64   -23.6391   -9.9781  -10.1106 O.co2    1 ZINC000199604898   -1.1600
65     H65    -1.1476  -27.0696   -0.2049 H        1 ZINC000199604898    0.0500
66     H66    -2.4959  -26.7844    0.9216 H        1 ZINC000199604898    0.0500
67     H67    -2.8054  -26.8911   -0.8280 H        1 ZINC000199604898    0.0500
68     H68    -1.1824  -24.7120    0.5628 H        1 ZINC000199604898    0.0700
69     H69    -1.1814  -23.6511   -1.6784 H        1 ZINC000199604898    0.0600
70     H70    -0.3800  -25.2398   -1.7233 H        1 ZINC000199604898    0.0500
71     H71    -2.0378  -25.0614   -2.3463 H        1 ZINC000199604898    0.0500
72     H72    -3.9013  -24.5936   -0.8164 H        1 ZINC000199604898    0.0600
73     H73    -3.6636  -24.6238    0.9473 H        1 ZINC000199604898    0.0600
74     H74    -2.3170  -22.5468    0.8015 H        1 ZINC000199604898    0.0700
75     H75    -2.5547  -22.5166   -0.9623 H        1 ZINC000199604898    0.0700
76     H76    -5.0069  -22.3608   -0.6291 H        1 ZINC000199604898    0.0700
77     H77    -4.7692  -22.3911    1.1346 H        1 ZINC000199604898    0.0700
78     H78    -3.7706  -20.4758    2.3036 H        1 ZINC000199604898    0.0600
79     H79    -2.2909  -20.7046    1.3411 H        1 ZINC000199604898    0.0700
80     H80    -3.0866  -19.1130    1.3853 H        1 ZINC000199604898    0.0700
81     H81    -7.7461  -18.3570   -0.5311 H        1 ZINC000199604898    0.1000
82     H82    -7.6612  -18.3639    1.2468 H        1 ZINC000199604898    0.1000
83     H83    -7.0973  -15.9493    1.2293 H        1 ZINC000199604898    0.0800
84     H84    -7.1821  -15.9424   -0.5487 H        1 ZINC000199604898    0.0800
85     H85    -9.6188  -16.9587    0.4547 H        1 ZINC000199604898    0.4000
86     H86   -11.4859  -15.1854   -0.3404 H        1 ZINC000199604898    0.1100
87     H87   -11.4010  -15.1923    1.4376 H        1 ZINC000199604898    0.1000
88     H88   -10.8371  -12.7777    1.4200 H        1 ZINC000199604898    0.0700
89     H89   -10.9220  -12.7708   -0.3579 H        1 ZINC000199604898    0.0800
90     H90   -13.3586  -13.7870    0.6454 H        1 ZINC000199604898    0.4000
91     H91   -15.2090  -13.4769    0.1469 H        1 ZINC000199604898    0.3700
92     H92   -13.4605   -9.6531   -0.9247 H        1 ZINC000199604898    0.0600
93     H93   -14.8913   -9.1494   -1.8560 H        1 ZINC000199604898    0.0800
94     H94   -14.8692   -8.9598   -0.0863 H        1 ZINC000199604898    0.0500
95     H95   -15.0312  -12.8949   -1.7551 H        1 ZINC000199604898    0.0500
96     H96   -14.8861  -11.4908   -2.8394 H        1 ZINC000199604898    0.0800
97     H97   -13.5207  -11.9541   -1.7957 H        1 ZINC000199604898    0.0400
98     H98   -17.0929  -11.9051   -0.7491 H        1 ZINC000199604898    0.0600
99     H99   -17.0512  -10.2590   -0.0730 H        1 ZINC000199604898    0.0500
100    H100  -20.4559  -10.4296   -7.9498 H        1 ZINC000199604898    0.0800
101    H101  -20.5461   -8.6523   -7.9098 H        1 ZINC000199604898    0.0900
102    H102  -18.5038  -13.2461   -9.5624 H        1 ZINC000199604898    0.2300
103    H103  -16.0712  -16.3894  -12.3101 H        1 ZINC000199604898    0.4200
104    H104  -14.9865  -16.2946  -13.5896 H        1 ZINC000199604898    0.4000
105    H105  -14.4133  -11.8495  -14.4314 H        1 ZINC000199604898    0.2000
106    H106  -19.2031  -11.9177  -12.4654 H        1 ZINC000199604898    0.3400
@<TRIPOS>BOND
1     1     2     1
2     1     65    1
3     1     66    1
4     1     67    1
5     2     3     1
6     2     4     1
7     2     68    1
8     3     69    1
9     3     70    1
10    3     71    1
11    4     5     1
12    4     72    1
13    4     73    1
14    5     6     1
15    5     74    1
16    5     75    1
17    6     7     1
18    6     76    1
19    6     77    1
20    7     8     1
21    7     9     1
22    7     10    1
23    9     78    1
24    9     79    1
25    9     80    1
26    10    11    2
27    10    12    1
28    12    13    1
29    13    14    1
30    13    81    1
31    13    82    1
32    14    15    1
33    14    83    1
34    14    84    1
35    15    16    am
36    15    85    1
37    16    17    2
38    16    18    1
39    18    19    1
40    18    86    1
41    18    87    1
42    19    20    1
43    19    88    1
44    19    89    1
45    20    21    am
46    20    90    1
47    21    22    2
48    21    23    1
49    23    24    1
50    23    25    1
51    23    26    1
52    25    91    1
53    26    27    1
54    26    28    1
55    26    29    1
56    27    92    1
57    27    93    1
58    27    94    1
59    28    95    1
60    28    96    1
61    28    97    1
62    29    30    1
63    29    98    1
64    29    99    1
65    30    31    1
66    31    32    ar
67    31    33    ar
68    31    34    1
69    34    35    1
70    35    36    ar
71    35    37    ar
72    35    38    1
73    38    39    1
74    39    40    1
75    39    100   1
76    39    101   1
77    40    41    1
78    40    58    1
79    40    42    1
80    42    43    1
81    43    44    1
82    43    45    1
83    43    55    1
84    45    54    1
85    45    46    1
86    46    47    2
87    46    102   1
88    47    48    1
89    48    54    ar
90    48    49    ar
91    49    50    1
92    49    51    ar
93    50    103   1
94    50    104   1
95    51    52    ar
96    52    53    ar
97    52    105   1
98    53    54    ar
99    55    56    1
100   55    57    1
101   55    58    1
102   57    106   1
103   58    59    1
104   58    60    1
105   60    61    1
106   61    62    ar
107   61    63    ar
108   61    64    ar
@<TRIPOS>SUBSTRUCTURE
1   ZINC000199604898 1     RESIDUE    1   A     ZIN   1
@<TRIPOS>MOLECULE
ZINC000199605350
105   107   1     0     0
SMALL
USER_CHARGES
@<TRIPOS>ATOM
1      C1     -0.4808  -16.2017   -9.9980 C.2      1 ZINC000199605350   -0.1900
2      C2     -1.1128  -16.7373   -8.9833 C.2      1 ZINC000199605350   -0.1100
3      C3     -2.0294  -15.8930   -8.1358 C.3      1 ZINC000199605350   -0.0700
4      C4     -3.4454  -16.0365   -8.6310 C.2      1 ZINC000199605350   -0.0800
5      C5     -4.4149  -16.3723   -7.7849 C.2      1 ZINC000199605350   -0.1800
6      C6     -5.8020  -16.6544   -8.3019 C.3      1 ZINC000199605350   -0.1000
7      C7     -4.1332  -16.4682   -6.3443 C.2      1 ZINC000199605350    0.4000
8      O8     -3.9277  -17.5541   -5.8357 O.2      1 ZINC000199605350   -0.4300
9      S9     -4.0935  -15.0104   -5.3554 S.3      1 ZINC000199605350   -0.1400
10     C10    -3.7155  -15.7361   -3.7409 C.3      1 ZINC000199605350   -0.1200
11     C11    -3.6291  -14.6267   -2.6908 C.3      1 ZINC000199605350    0.1400
12     N12    -3.3232  -15.2140   -1.3840 N.am     1 ZINC000199605350   -0.7300
13     C13    -3.1988  -14.4211   -0.3013 C.2      1 ZINC000199605350    0.5200
14     O14    -3.3400  -13.2214   -0.4088 O.2      1 ZINC000199605350   -0.5300
15     C15    -2.8841  -15.0253    1.0430 C.3      1 ZINC000199605350   -0.1500
16     C16    -2.7976  -13.9160    2.0931 C.3      1 ZINC000199605350    0.1400
17     N17    -2.4917  -14.5033    3.3999 N.am     1 ZINC000199605350   -0.7400
18     C18    -2.3673  -13.7104    4.4826 C.2      1 ZINC000199605350    0.5000
19     O19    -2.4191  -12.5048    4.3605 O.2      1 ZINC000199605350   -0.5200
20     C20    -2.1637  -14.3217    5.8449 C.3      1 ZINC000199605350    0.1000
21     H21    -1.3012  -13.8598    6.3252 H        1 ZINC000199605350    0.1400
22     O22    -1.9371  -15.7260    5.7077 O.3      1 ZINC000199605350   -0.5500
23     C23    -3.4102  -14.0874    6.7005 C.3      1 ZINC000199605350   -0.0900
24     C24    -3.6814  -12.5853    6.8061 C.3      1 ZINC000199605350   -0.1400
25     C25    -4.6114  -14.7781    6.0516 C.3      1 ZINC000199605350   -0.1400
26     C26    -3.1845  -14.6645    8.0994 C.3      1 ZINC000199605350    0.1500
27     O27    -4.3487  -14.4456    8.8985 O.3      1 ZINC000199605350   -0.7700
28     P28    -4.4629  -14.9246   10.4314 P.3      1 ZINC000199605350    2.2900
29     O29    -4.1704  -16.4390   10.5209 O.co2    1 ZINC000199605350   -1.1000
30     O30    -3.4383  -14.1505   11.2905 O.co2    1 ZINC000199605350   -1.1100
31     O31    -5.9495  -14.6321   10.9758 O.3      1 ZINC000199605350   -1.0900
32     P32    -6.7881  -15.1256   12.2585 P.3      1 ZINC000199605350    2.2800
33     O33    -6.5086  -16.6240   12.5111 O.co2    1 ZINC000199605350   -1.1000
34     O34    -6.3636  -14.3064   13.4977 O.co2    1 ZINC000199605350   -1.1000
35     O35    -8.3605  -14.9114   11.9865 O.3      1 ZINC000199605350   -0.7800
36     C36    -9.3739  -15.3482   12.8943 C.3      1 ZINC000199605350    0.1500
37     C37   -10.7510  -14.9889   12.3327 C.3      1 ZINC000199605350    0.0700
38     H38   -10.8005  -13.9245   12.1031 H        1 ZINC000199605350    0.0800
39     O39   -11.0322  -15.7716   11.1518 O.3      1 ZINC000199605350   -0.3500
40     C40   -12.4686  -15.7372   11.0057 C.3      1 ZINC000199605350    0.2600
41     H41   -12.7834  -14.7876   10.5731 H        1 ZINC000199605350    0.1100
42     N42   -12.9231  -16.8523   10.1713 N.pl3    1 ZINC000199605350   -0.4500
43     C43   -12.2658  -18.0295    9.9702 C.2      1 ZINC000199605350    0.3100
44     N44   -12.9550  -18.7930    9.1729 N.2      1 ZINC000199605350   -0.4900
45     C45   -14.0952  -18.1562    8.8127 C.ar     1 ZINC000199605350   -0.1000
46     C46   -15.1909  -18.4788    7.9943 C.ar     1 ZINC000199605350    0.5000
47     N47   -15.2531  -19.6980    7.3425 N.pl3    1 ZINC000199605350   -0.8300
48     N48   -16.1664  -17.5860    7.8612 N.ar     1 ZINC000199605350   -0.6000
49     C49   -16.1157  -16.4204    8.4797 C.ar     1 ZINC000199605350    0.3400
50     N50   -15.1096  -16.0752    9.2553 N.ar     1 ZINC000199605350   -0.5400
51     C51   -14.0913  -16.9057    9.4537 C.ar     1 ZINC000199605350    0.2900
52     C52   -13.0151  -15.8807   12.4435 C.3      1 ZINC000199605350    0.0600
53     H53   -13.9008  -15.2600   12.5791 H        1 ZINC000199605350    0.0800
54     O54   -13.3147  -17.2480   12.7312 O.3      1 ZINC000199605350   -0.4900
55     C55   -11.8590  -15.3743   13.3378 C.3      1 ZINC000199605350    0.1500
56     H56   -12.1748  -14.5049   13.9143 H        1 ZINC000199605350    0.0800
57     O57   -11.4073  -16.4137   14.2083 O.3      1 ZINC000199605350   -0.7100
58     P58   -11.4135  -16.2783   15.8125 P.3      1 ZINC000199605350    2.1200
59     O59   -10.6175  -14.9956   16.2315 O.co2    1 ZINC000199605350   -1.1800
60     O60   -12.8909  -16.1655   16.3214 O.co2    1 ZINC000199605350   -1.1900
61     O61   -10.7381  -17.5421   16.4459 O.co2    1 ZINC000199605350   -1.1600
62     C62    -0.9235  -18.1977   -8.6634 C.3      1 ZINC000199605350   -0.0600
63     C63    -0.3559  -18.3408   -7.2498 C.3      1 ZINC000199605350   -0.1500
64     C64    -2.2713  -18.9171   -8.7470 C.3      1 ZINC000199605350   -0.1500
65     H65     0.1761  -16.8068  -10.6054 H        1 ZINC000199605350    0.1000
66     H66    -0.6199  -15.1561  -10.2300 H        1 ZINC000199605350    0.1000
67     H67    -1.9719  -16.2232   -7.0986 H        1 ZINC000199605350    0.0700
68     H68    -1.7255  -14.8483   -8.2019 H        1 ZINC000199605350    0.0900
69     H69    -3.6729  -15.8668   -9.6730 H        1 ZINC000199605350    0.1300
70     H70    -5.8923  -17.7142   -8.5403 H        1 ZINC000199605350    0.0800
71     H71    -6.5347  -16.3898   -7.5395 H        1 ZINC000199605350    0.0700
72     H72    -5.9823  -16.0633   -9.1998 H        1 ZINC000199605350    0.0800
73     H73    -4.5028  -16.4375   -3.4645 H        1 ZINC000199605350    0.1000
74     H74    -2.7622  -16.2620   -3.7931 H        1 ZINC000199605350    0.1000
75     H75    -2.8419  -13.9253   -2.9671 H        1 ZINC000199605350    0.0800
76     H76    -4.5824  -14.1008   -2.6385 H        1 ZINC000199605350    0.0800
77     H77    -3.2102  -16.1736   -1.2980 H        1 ZINC000199605350    0.4000
78     H78    -3.6713  -15.7267    1.3193 H        1 ZINC000199605350    0.1100
79     H79    -1.9308  -15.5512    0.9907 H        1 ZINC000199605350    0.1000
80     H80    -2.0104  -13.2145    1.8167 H        1 ZINC000199605350    0.0700
81     H81    -3.7510  -13.3900    2.1453 H        1 ZINC000199605350    0.0800
82     H82    -2.3787  -15.4628    3.4859 H        1 ZINC000199605350    0.4000
83     H83    -2.6657  -16.2027    5.2870 H        1 ZINC000199605350    0.3700
84     H84    -3.9575  -12.1962    5.8261 H        1 ZINC000199605350    0.0600
85     H85    -4.4963  -12.4118    7.5088 H        1 ZINC000199605350    0.0700
86     H86    -2.7834  -12.0779    7.1586 H        1 ZINC000199605350    0.0500
87     H87    -4.4182  -15.8482    5.9764 H        1 ZINC000199605350    0.0600
88     H88    -5.4995  -14.6112    6.6612 H        1 ZINC000199605350    0.0800
89     H89    -4.7722  -14.3670    5.0550 H        1 ZINC000199605350    0.0400
90     H90    -2.9913  -15.7346    8.0242 H        1 ZINC000199605350    0.0600
91     H91    -2.3287  -14.1724    8.5617 H        1 ZINC000199605350    0.0500
92     H92    -9.3048  -16.4283   13.0238 H        1 ZINC000199605350    0.0800
93     H93    -9.2350  -14.8572   13.8575 H        1 ZINC000199605350    0.0900
94     H94   -11.3133  -18.2899   10.4075 H        1 ZINC000199605350    0.2300
95     H95   -14.5350  -20.3415    7.4478 H        1 ZINC000199605350    0.4200
96     H96   -16.0148  -19.9090    6.7802 H        1 ZINC000199605350    0.4000
97     H97   -16.9300  -15.7241    8.3439 H        1 ZINC000199605350    0.2000
98     H98   -13.9931  -17.6310   12.1583 H        1 ZINC000199605350    0.3400
99     H99    -0.2307  -18.6397   -9.3795 H        1 ZINC000199605350    0.0700
100    H100   -1.0487  -17.8988   -6.5337 H        1 ZINC000199605350    0.0600
101    H101   -0.2190  -19.3971   -7.0184 H        1 ZINC000199605350    0.0600
102    H102    0.6043  -17.8283   -7.1902 H        1 ZINC000199605350    0.0600
103    H103   -2.6756  -18.8152   -9.7541 H        1 ZINC000199605350    0.0500
104    H104   -2.1343  -19.9734   -8.5157 H        1 ZINC000199605350    0.0500
105    H105   -2.9640  -18.4751   -8.0309 H        1 ZINC000199605350    0.0700
@<TRIPOS>BOND
1     1     2     2
2     1     65    1
3     1     66    1
4     2     3     1
5     2     62    1
6     3     4     1
7     3     67    1
8     3     68    1
9     4     5     2
10    4     69    1
11    5     6     1
12    5     7     1
13    6     70    1
14    6     71    1
15    6     72    1
16    7     8     2
17    7     9     1
18    9     10    1
19    10    11    1
20    10    73    1
21    10    74    1
22    11    12    1
23    11    75    1
24    11    76    1
25    12    13    am
26    12    77    1
27    13    14    2
28    13    15    1
29    15    16    1
30    15    78    1
31    15    79    1
32    16    17    1
33    16    80    1
34    16    81    1
35    17    18    am
36    17    82    1
37    18    19    2
38    18    20    1
39    20    21    1
40    20    22    1
41    20    23    1
42    22    83    1
43    23    24    1
44    23    25    1
45    23    26    1
46    24    84    1
47    24    85    1
48    24    86    1
49    25    87    1
50    25    88    1
51    25    89    1
52    26    27    1
53    26    90    1
54    26    91    1
55    27    28    1
56    28    29    ar
57    28    30    ar
58    28    31    1
59    31    32    1
60    32    33    ar
61    32    34    ar
62    32    35    1
63    35    36    1
64    36    37    1
65    36    92    1
66    36    93    1
67    37    38    1
68    37    55    1
69    37    39    1
70    39    40    1
71    40    41    1
72    40    42    1
73    40    52    1
74    42    51    1
75    42    43    1
76    43    44    2
77    43    94    1
78    44    45    1
79    45    51    ar
80    45    46    ar
81    46    47    1
82    46    48    ar
83    47    95    1
84    47    96    1
85    48    49    ar
86    49    50    ar
87    49    97    1
88    50    51    ar
89    52    53    1
90    52    54    1
91    52    55    1
92    54    98    1
93    55    56    1
94    55    57    1
95    57    58    1
96    58    59    ar
97    58    60    ar
98    58    61    ar
99    62    63    1
100   62    64    1
101   62    99    1
102   63    100   1
103   63    101   1
104   63    102   1
105   64    103   1
106   64    104   1
107   64    105   1
@<TRIPOS>SUBSTRUCTURE
1   ZINC000199605350 1     RESIDUE    1   A     ZIN   1
@<TRIPOS>MOLECULE
ZINC000199628079
100   102   1     0     0
SMALL
USER_CHARGES
@<TRIPOS>ATOM
1      C1      9.8456   -6.6515   19.3528 C.3      1 ZINC000199628079   -0.1500
2      C2      9.6040   -7.7929   18.3630 C.3      1 ZINC000199628079   -0.1300
3      C3      9.0250   -7.2279   17.0644 C.3      1 ZINC000199628079   -0.1200
4      C4      8.7834   -8.3694   16.0747 C.3      1 ZINC000199628079   -0.1100
5      C5      8.2044   -7.8044   14.7760 C.3      1 ZINC000199628079   -0.1100
6      H6      7.3080   -7.2258   14.9994 H        1 ZINC000199628079    0.1100
7      C7      9.2412   -6.9004   14.1062 C.3      1 ZINC000199628079   -0.1500
8      C8      7.8521   -8.9383   13.8480 C.2      1 ZINC000199628079    0.3300
9      O9      8.0452  -10.0858   14.1916 O.2      1 ZINC000199628079   -0.4500
10     S10     7.1794   -8.6072   12.3089 S.3      1 ZINC000199628079   -0.1200
11     C11     6.9791  -10.2941   11.6840 C.3      1 ZINC000199628079   -0.1200
12     C12     6.3752  -10.2491   10.2789 C.3      1 ZINC000199628079    0.1400
13     N13     6.2131  -11.6144    9.7731 N.am     1 ZINC000199628079   -0.7300
14     C14     5.6956  -11.8215    8.5460 C.2      1 ZINC000199628079    0.5200
15     O15     5.3641  -10.8775    7.8605 O.2      1 ZINC000199628079   -0.5300
16     C16     5.5288  -13.2259    8.0257 C.3      1 ZINC000199628079   -0.1500
17     C17     4.9250  -13.1809    6.6206 C.3      1 ZINC000199628079    0.1400
18     N18     4.7629  -14.5463    6.1148 N.am     1 ZINC000199628079   -0.7400
19     C19     4.2454  -14.7533    4.8877 C.2      1 ZINC000199628079    0.5000
20     O20     3.8299  -13.8167    4.2389 O.2      1 ZINC000199628079   -0.5200
21     C21     4.1830  -16.1486    4.3219 C.3      1 ZINC000199628079    0.1000
22     H22     4.6514  -16.1629    3.3378 H        1 ZINC000199628079    0.1400
23     O23     4.8748  -17.0468    5.1918 O.3      1 ZINC000199628079   -0.5500
24     C24     2.7214  -16.5836    4.1974 C.3      1 ZINC000199628079   -0.0900
25     C25     2.0274  -16.4336    5.5527 C.3      1 ZINC000199628079   -0.1400
26     C26     2.0145  -15.7059    3.1625 C.3      1 ZINC000199628079   -0.1400
27     C27     2.6607  -18.0462    3.7524 C.3      1 ZINC000199628079    0.1500
28     O28     1.2956  -18.4525    3.6361 O.3      1 ZINC000199628079   -0.7700
29     P29     0.8572  -19.9351    3.1871 P.3      1 ZINC000199628079    2.2900
30     O30     1.5147  -20.2783    1.8317 O.co2    1 ZINC000199628079   -1.1000
31     O31     1.3161  -20.9534    4.2546 O.co2    1 ZINC000199628079   -1.1100
32     O32    -0.7446  -19.9991    3.0380 O.3      1 ZINC000199628079   -1.0900
33     P33    -1.7634  -21.0403    2.3523 P.3      1 ZINC000199628079    2.2900
34     O34    -1.1718  -21.5333    1.0129 O.co2    1 ZINC000199628079   -1.1000
35     O35    -1.9796  -22.2455    3.2944 O.co2    1 ZINC000199628079   -1.1000
36     O36    -3.1732  -20.3118    2.0806 O.3      1 ZINC000199628079   -0.7700
37     C37    -4.2529  -20.9400    1.3866 C.3      1 ZINC000199628079    0.1400
38     C38    -5.4365  -19.9741    1.3036 C.3      1 ZINC000199628079    0.0700
39     H39    -5.7056  -19.6184    2.2981 H        1 ZINC000199628079    0.1000
40     O40    -5.1174  -18.8608    0.4407 O.3      1 ZINC000199628079   -0.3500
41     C41    -6.3919  -18.3114    0.0413 C.3      1 ZINC000199628079    0.2600
42     H42    -6.8094  -17.7005    0.8417 H        1 ZINC000199628079    0.1200
43     N43    -6.2445  -17.5174   -1.1810 N.pl3    1 ZINC000199628079   -0.4500
44     C44    -5.2591  -17.6480   -2.1138 C.2      1 ZINC000199628079    0.2900
45     N45    -5.4340  -16.7823   -3.0696 N.2      1 ZINC000199628079   -0.4800
46     C46    -6.5395  -16.0431   -2.8117 C.ar     1 ZINC000199628079   -0.1000
47     C47    -7.2003  -14.9913   -3.4685 C.ar     1 ZINC000199628079    0.5000
48     N48    -6.7221  -14.4941   -4.6682 N.pl3    1 ZINC000199628079   -0.8300
49     N49    -8.2956  -14.4853   -2.9110 N.ar     1 ZINC000199628079   -0.6000
50     C50    -8.7594  -14.9536   -1.7669 C.ar     1 ZINC000199628079    0.3400
51     N51    -8.1735  -15.9368   -1.1163 N.ar     1 ZINC000199628079   -0.5400
52     C52    -7.0763  -16.5098   -1.5998 C.ar     1 ZINC000199628079    0.2900
53     C53    -7.2882  -19.5424   -0.2191 C.3      1 ZINC000199628079    0.0600
54     H54    -7.2735  -19.8089   -1.2759 H        1 ZINC000199628079    0.0700
55     O55    -8.6263  -19.2879    0.2133 O.3      1 ZINC000199628079   -0.5000
56     C56    -6.6462  -20.6623    0.6331 C.3      1 ZINC000199628079    0.1500
57     H57    -6.3131  -21.4827   -0.0026 H        1 ZINC000199628079    0.0800
58     O58    -7.5694  -21.1352    1.6160 O.3      1 ZINC000199628079   -0.7200
59     P59    -8.0416  -22.6717    1.7081 P.3      1 ZINC000199628079    2.1200
60     O60    -8.6231  -23.1231    0.3251 O.co2    1 ZINC000199628079   -1.1900
61     O61    -6.8153  -23.5736    2.0784 O.co2    1 ZINC000199628079   -1.1700
62     O62    -9.1459  -22.8135    2.8103 O.co2    1 ZINC000199628079   -1.1700
63     H63     8.9021   -6.1482   19.5643 H        1 ZINC000199628079    0.0500
64     H64    10.2581   -7.0540   20.2780 H        1 ZINC000199628079    0.0500
65     H65    10.5486   -5.9390   18.9212 H        1 ZINC000199628079    0.0500
66     H66    10.5474   -8.2962   18.1515 H        1 ZINC000199628079    0.0600
67     H67     8.9009   -8.5054   18.7946 H        1 ZINC000199628079    0.0600
68     H68     8.0815   -6.7247   17.2760 H        1 ZINC000199628079    0.0600
69     H69     9.7280   -6.5155   16.6328 H        1 ZINC000199628079    0.0700
70     H70     9.7268   -8.8727   15.8631 H        1 ZINC000199628079    0.0700
71     H71     8.0804   -9.0818   16.5062 H        1 ZINC000199628079    0.0700
72     H72    10.1375   -7.4791   13.8828 H        1 ZINC000199628079    0.0600
73     H73     8.8287   -6.4979   13.1810 H        1 ZINC000199628079    0.0700
74     H74     9.4960   -6.0803   14.7774 H        1 ZINC000199628079    0.0700
75     H75     7.9513  -10.7853   11.6460 H        1 ZINC000199628079    0.1000
76     H76     6.3164  -10.8507   12.3466 H        1 ZINC000199628079    0.1000
77     H77     5.4029   -9.7578   10.3168 H        1 ZINC000199628079    0.0800
78     H78     7.0379   -9.6925    9.6163 H        1 ZINC000199628079    0.0800
79     H79     6.4782  -12.3694   10.3214 H        1 ZINC000199628079    0.4000
80     H80     6.5011  -13.7172    7.9878 H        1 ZINC000199628079    0.1000
81     H81     4.8661  -13.7826    8.6883 H        1 ZINC000199628079    0.1100
82     H82     3.9527  -12.6897    6.6586 H        1 ZINC000199628079    0.0800
83     H83     5.5877  -12.6243    5.9580 H        1 ZINC000199628079    0.0700
84     H84     5.0280  -15.3013    6.6631 H        1 ZINC000199628079    0.4000
85     H85     4.5113  -17.0854    6.0870 H        1 ZINC000199628079    0.3700
86     H86     2.0707  -15.3917    5.8697 H        1 ZINC000199628079    0.0400
87     H87     0.9862  -16.7435    5.4640 H        1 ZINC000199628079    0.0800
88     H88     2.5311  -17.0589    6.2899 H        1 ZINC000199628079    0.0500
89     H89     2.5748  -15.7234    2.2278 H        1 ZINC000199628079    0.0500
90     H90     1.0079  -16.0868    2.9900 H        1 ZINC000199628079    0.0800
91     H91     1.9572  -14.6823    3.5327 H        1 ZINC000199628079    0.0600
92     H92     3.1551  -18.1531    2.7869 H        1 ZINC000199628079    0.0500
93     H93     3.1643  -18.6715    4.4896 H        1 ZINC000199628079    0.0600
94     H94    -3.9311  -21.2078    0.3802 H        1 ZINC000199628079    0.0600
95     H95    -4.5549  -21.8396    1.9229 H        1 ZINC000199628079    0.1000
96     H96    -4.4519  -18.3640   -2.0664 H        1 ZINC000199628079    0.2300
97     H97    -5.9218  -14.8720   -5.0653 H        1 ZINC000199628079    0.4200
98     H98    -7.1871  -13.7677   -5.1120 H        1 ZINC000199628079    0.4000
99     H99    -9.6526  -14.5134   -1.3489 H        1 ZINC000199628079    0.2000
100    H100   -9.0558  -18.5544   -0.2478 H        1 ZINC000199628079    0.3500
@<TRIPOS>BOND
1     1     2     1
2     1     63    1
3     1     64    1
4     1     65    1
5     2     3     1
6     2     66    1
7     2     67    1
8     3     4     1
9     3     68    1
10    3     69    1
11    4     5     1
12    4     70    1
13    4     71    1
14    5     6     1
15    5     7     1
16    5     8     1
17    7     72    1
18    7     73    1
19    7     74    1
20    8     9     2
21    8     10    1
22    10    11    1
23    11    12    1
24    11    75    1
25    11    76    1
26    12    13    1
27    12    77    1
28    12    78    1
29    13    14    am
30    13    79    1
31    14    15    2
32    14    16    1
33    16    17    1
34    16    80    1
35    16    81    1
36    17    18    1
37    17    82    1
38    17    83    1
39    18    19    am
40    18    84    1
41    19    20    2
42    19    21    1
43    21    22    1
44    21    23    1
45    21    24    1
46    23    85    1
47    24    25    1
48    24    26    1
49    24    27    1
50    25    86    1
51    25    87    1
52    25    88    1
53    26    89    1
54    26    90    1
55    26    91    1
56    27    28    1
57    27    92    1
58    27    93    1
59    28    29    1
60    29    30    ar
61    29    31    ar
62    29    32    1
63    32    33    1
64    33    34    ar
65    33    35    ar
66    33    36    1
67    36    37    1
68    37    38    1
69    37    94    1
70    37    95    1
71    38    39    1
72    38    56    1
73    38    40    1
74    40    41    1
75    41    42    1
76    41    43    1
77    41    53    1
78    43    52    1
79    43    44    1
80    44    45    2
81    44    96    1
82    45    46    1
83    46    52    ar
84    46    47    ar
85    47    48    1
86    47    49    ar
87    48    97    1
88    48    98    1
89    49    50    ar
90    50    51    ar
91    50    99    1
92    51    52    ar
93    53    54    1
94    53    55    1
95    53    56    1
96    55    100   1
97    56    57    1
98    56    58    1
99    58    59    1
100   59    60    ar
101   59    61    ar
102   59    62    ar
@<TRIPOS>SUBSTRUCTURE
1   ZINC000199628079 1     RESIDUE    1   A     ZIN   1
@<TRIPOS>MOLECULE
ZINC000195448510
95    97    1     0     0
SMALL
USER_CHARGES
@<TRIPOS>ATOM
1      C1     13.9527   -8.0459  -18.4998 C.3      1 ZINC000195448510   -0.1500
2      C2     13.0862   -6.8272  -18.8236 C.3      1 ZINC000195448510   -0.1000
3      C3     12.1836   -6.5276  -17.6547 C.2      1 ZINC000195448510   -0.1500
4      C4     12.1887   -5.3354  -17.1118 C.2      1 ZINC000195448510   -0.1500
5      C5     11.2861   -5.0358  -15.9428 C.3      1 ZINC000195448510   -0.1200
6      C6     12.1088   -4.5107  -14.7946 C.2      1 ZINC000195448510    0.3300
7      O7     13.3103   -4.3914  -14.9138 O.2      1 ZINC000195448510   -0.4400
8      S8     11.3480   -4.0825  -13.3219 S.3      1 ZINC000195448510   -0.1200
9      C9     12.7893   -3.5441  -12.3685 C.3      1 ZINC000195448510   -0.1200
10     C10    12.3420   -3.1017  -10.9738 C.3      1 ZINC000195448510    0.1300
11     N11    13.5085   -2.6659  -10.2022 N.am     1 ZINC000195448510   -0.7300
12     C12    13.3546   -2.2303   -8.9361 C.2      1 ZINC000195448510    0.5200
13     O13    12.2503   -2.1990   -8.4356 O.2      1 ZINC000195448510   -0.5300
14     C14    14.5546   -1.7820   -8.1423 C.3      1 ZINC000195448510   -0.1500
15     C15    14.1073   -1.3396   -6.7477 C.3      1 ZINC000195448510    0.1400
16     N16    15.2738   -0.9038   -5.9760 N.am     1 ZINC000195448510   -0.7400
17     C17    15.1199   -0.4682   -4.7099 C.2      1 ZINC000195448510    0.5000
18     O18    14.0079   -0.3486   -4.2408 O.2      1 ZINC000195448510   -0.5200
19     C19    16.3294   -0.1296   -3.8772 C.3      1 ZINC000195448510    0.1000
20     H20    16.1849    0.8420   -3.4047 H        1 ZINC000195448510    0.1400
21     O21    17.4867   -0.0847   -4.7144 O.3      1 ZINC000195448510   -0.5500
22     C22    16.5213   -1.1977   -2.7987 C.3      1 ZINC000195448510   -0.0900
23     C23    15.3508   -1.1451   -1.8148 C.3      1 ZINC000195448510   -0.1400
24     C24    16.5755   -2.5795   -3.4533 C.3      1 ZINC000195448510   -0.1400
25     C25    17.8295   -0.9367   -2.0494 C.3      1 ZINC000195448510    0.1500
26     O26    18.0087   -1.9343   -1.0421 O.3      1 ZINC000195448510   -0.7700
27     P27    19.2833   -1.9688   -0.0591 P.3      1 ZINC000195448510    2.2900
28     O28    19.4108   -0.6110    0.6668 O.co2    1 ZINC000195448510   -1.1000
29     O29    20.5626   -2.2340   -0.8838 O.co2    1 ZINC000195448510   -1.1100
30     O30    19.0920   -3.1420    1.0267 O.3      1 ZINC000195448510   -1.0900
31     P31    19.7379   -3.4466    2.4697 P.3      1 ZINC000195448510    2.2900
32     O32    19.7611   -2.1488    3.3078 O.co2    1 ZINC000195448510   -1.0900
33     O33    21.1807   -3.9684    2.2884 O.co2    1 ZINC000195448510   -1.1100
34     O34    18.8559   -4.5596    3.2283 O.3      1 ZINC000195448510   -0.7700
35     C35    19.1100   -4.9700    4.5733 C.3      1 ZINC000195448510    0.1400
36     C36    18.0920   -6.0365    4.9821 C.3      1 ZINC000195448510    0.0700
37     H37    17.0772   -5.6727    4.8215 H        1 ZINC000195448510    0.1000
38     O38    18.3132   -7.2542    4.2376 O.3      1 ZINC000195448510   -0.3500
39     C39    17.6784   -8.2946    5.0126 C.3      1 ZINC000195448510    0.2600
40     H40    16.5995   -8.2781    4.8583 H        1 ZINC000195448510    0.1200
41     N41    18.2244   -9.6051    4.6510 N.pl3    1 ZINC000195448510   -0.4500
42     C42    19.4471   -9.8448    4.0980 C.2      1 ZINC000195448510    0.2900
43     N43    19.6061  -11.1223    3.9072 N.2      1 ZINC000195448510   -0.4800
44     C44    18.4987  -11.7818    4.3244 C.ar     1 ZINC000195448510   -0.1000
45     C45    18.1084  -13.1310    4.3644 C.ar     1 ZINC000195448510    0.5000
46     N46    18.9526  -14.1262    3.9040 N.pl3    1 ZINC000195448510   -0.8300
47     N47    16.9097  -13.4291    4.8551 N.ar     1 ZINC000195448510   -0.6000
48     C48    16.0978  -12.4862    5.2970 C.ar     1 ZINC000195448510    0.3400
49     N49    16.4207  -11.2101    5.2788 N.ar     1 ZINC000195448510   -0.5400
50     C50    17.6012  -10.8167    4.8121 C.ar     1 ZINC000195448510    0.2900
51     C51    18.0169   -7.9551    6.4812 C.3      1 ZINC000195448510    0.0600
52     H52    18.9028   -8.5012    6.8050 H        1 ZINC000195448510    0.0700
53     O53    16.9081   -8.2523    7.3322 O.3      1 ZINC000195448510   -0.5000
54     C54    18.2933   -6.4332    6.4614 C.3      1 ZINC000195448510    0.1500
55     H55    19.3166   -6.2268    6.7749 H        1 ZINC000195448510    0.0800
56     O56    17.3650   -5.7448    7.3018 O.3      1 ZINC000195448510   -0.7200
57     P57    17.8202   -4.8283    8.5448 P.3      1 ZINC000195448510    2.1200
58     O58    18.7260   -5.6679    9.5086 O.co2    1 ZINC000195448510   -1.1900
59     O59    18.6252   -3.5929    8.0155 O.co2    1 ZINC000195448510   -1.1700
60     O60    16.5522   -4.3322    9.3198 O.co2    1 ZINC000195448510   -1.1700
61     H61    14.5579   -7.8373  -17.6175 H        1 ZINC000195448510    0.0600
62     H62    13.3119   -8.9060  -18.3057 H        1 ZINC000195448510    0.0600
63     H63    14.6056   -8.2626  -19.3453 H        1 ZINC000195448510    0.0600
64     H64    13.7270   -5.9670  -19.0177 H        1 ZINC000195448510    0.0700
65     H65    12.4810   -7.0358  -19.7059 H        1 ZINC000195448510    0.0700
66     H66    11.5325   -7.2958  -17.2644 H        1 ZINC000195448510    0.1100
67     H67    12.8399   -4.5672  -17.5021 H        1 ZINC000195448510    0.1200
68     H68    10.5500   -4.2868  -16.2348 H        1 ZINC000195448510    0.1100
69     H69    10.7743   -5.9479  -15.6359 H        1 ZINC000195448510    0.1100
70     H70    13.4948   -4.3702  -12.2788 H        1 ZINC000195448510    0.1000
71     H71    13.2705   -2.7090  -12.8777 H        1 ZINC000195448510    0.1000
72     H72    11.6365   -2.2757  -11.0636 H        1 ZINC000195448510    0.0800
73     H73    11.8608   -3.9368  -10.4647 H        1 ZINC000195448510    0.0800
74     H74    14.3917   -2.6910  -10.6025 H        1 ZINC000195448510    0.4000
75     H75    15.2601   -2.6080   -8.0526 H        1 ZINC000195448510    0.1100
76     H76    15.0358   -0.9469   -8.6515 H        1 ZINC000195448510    0.1000
77     H77    13.4018   -0.5136   -6.8374 H        1 ZINC000195448510    0.0700
78     H78    13.6261   -2.1747   -6.2385 H        1 ZINC000195448510    0.0800
79     H79    16.1570   -0.9289   -6.3763 H        1 ZINC000195448510    0.4000
80     H80    17.6765   -0.9174   -5.1680 H        1 ZINC000195448510    0.3700
81     H81    14.4285   -1.4075   -2.3330 H        1 ZINC000195448510    0.0600
82     H82    15.5257   -1.8520   -1.0038 H        1 ZINC000195448510    0.0800
83     H83    15.2643   -0.1381   -1.4066 H        1 ZINC000195448510    0.0600
84     H84    17.4094   -2.6171   -4.1543 H        1 ZINC000195448510    0.0500
85     H85    16.7122   -3.3405   -2.6850 H        1 ZINC000195448510    0.0800
86     H86    15.6435   -2.7655   -3.9871 H        1 ZINC000195448510    0.0400
87     H87    18.6634   -0.9742   -2.7503 H        1 ZINC000195448510    0.0500
88     H88    17.7909    0.0478   -1.5830 H        1 ZINC000195448510    0.0500
89     H89    20.1165   -5.3827    4.6433 H        1 ZINC000195448510    0.0600
90     H90    19.0227   -4.1107    5.2381 H        1 ZINC000195448510    0.1000
91     H91    20.1762   -9.0864    3.8537 H        1 ZINC000195448510    0.2300
92     H92    19.8252  -13.8959    3.5484 H        1 ZINC000195448510    0.4200
93     H93    18.6717  -15.0541    3.9369 H        1 ZINC000195448510    0.4000
94     H94    15.1326  -12.7726    5.6878 H        1 ZINC000195448510    0.2000
95     H95    16.6539   -9.1853    7.3355 H        1 ZINC000195448510    0.3500
@<TRIPOS>BOND
1     1     2     1
2     1     61    1
3     1     62    1
4     1     63    1
5     2     3     1
6     2     64    1
7     2     65    1
8     3     4     2
9     3     66    1
10    4     5     1
11    4     67    1
12    5     6     1
13    5     68    1
14    5     69    1
15    6     7     2
16    6     8     1
17    8     9     1
18    9     10    1
19    9     70    1
20    9     71    1
21    10    11    1
22    10    72    1
23    10    73    1
24    11    12    am
25    11    74    1
26    12    13    2
27    12    14    1
28    14    15    1
29    14    75    1
30    14    76    1
31    15    16    1
32    15    77    1
33    15    78    1
34    16    17    am
35    16    79    1
36    17    18    2
37    17    19    1
38    19    20    1
39    19    21    1
40    19    22    1
41    21    80    1
42    22    23    1
43    22    24    1
44    22    25    1
45    23    81    1
46    23    82    1
47    23    83    1
48    24    84    1
49    24    85    1
50    24    86    1
51    25    26    1
52    25    87    1
53    25    88    1
54    26    27    1
55    27    28    ar
56    27    29    ar
57    27    30    1
58    30    31    1
59    31    32    ar
60    31    33    ar
61    31    34    1
62    34    35    1
63    35    36    1
64    35    89    1
65    35    90    1
66    36    37    1
67    36    54    1
68    36    38    1
69    38    39    1
70    39    40    1
71    39    41    1
72    39    51    1
73    41    50    1
74    41    42    1
75    42    43    2
76    42    91    1
77    43    44    1
78    44    50    ar
79    44    45    ar
80    45    46    1
81    45    47    ar
82    46    92    1
83    46    93    1
84    47    48    ar
85    48    49    ar
86    48    94    1
87    49    50    ar
88    51    52    1
89    51    53    1
90    51    54    1
91    53    95    1
92    54    55    1
93    54    56    1
94    56    57    1
95    57    58    ar
96    57    59    ar
97    57    60    ar
@<TRIPOS>SUBSTRUCTURE
1   ZINC000195448510 1     RESIDUE    1   A     ZIN   1
@<TRIPOS>MOLECULE
ZINC000195883296
100   102   1     0     0
SMALL
USER_CHARGES
@<TRIPOS>ATOM
1      C1      9.4660   -9.2857   20.6605 C.3      1 ZINC000195883296   -0.1500
2      C2      9.2602  -10.2491   19.4899 C.3      1 ZINC000195883296   -0.1300
3      C3      8.6460   -9.4938   18.3096 C.3      1 ZINC000195883296   -0.1200
4      C4      8.4403  -10.4572   17.1390 C.3      1 ZINC000195883296   -0.1100
5      C5      7.8261   -9.7018   15.9587 C.3      1 ZINC000195883296   -0.1100
6      H6      6.9096   -9.2074   16.2810 H        1 ZINC000195883296    0.1100
7      C7      8.8192   -8.6544   15.4512 C.3      1 ZINC000195883296   -0.1500
8      C8      7.5100  -10.6729   14.8505 C.2      1 ZINC000195883296    0.3300
9      O9      7.7522  -11.8534   14.9909 O.2      1 ZINC000195883296   -0.4500
10     S10     6.8091  -10.1103   13.3934 S.3      1 ZINC000195883296   -0.1200
11     C11     6.6701  -11.6715   12.4882 C.3      1 ZINC000195883296   -0.1200
12     C12     6.0508  -11.4107   11.1137 C.3      1 ZINC000195883296    0.1400
13     N13     5.9382  -12.6743   10.3810 N.am     1 ZINC000195883296   -0.7300
14     C14     5.4170  -12.6886    9.1382 C.2      1 ZINC000195883296    0.5200
15     O15     5.0412  -11.6553    8.6263 O.2      1 ZINC000195883296   -0.5300
16     C16     5.3013  -13.9885    8.3845 C.3      1 ZINC000195883296   -0.1500
17     C17     4.6820  -13.7276    7.0100 C.3      1 ZINC000195883296    0.1400
18     N18     4.5694  -14.9913    6.2774 N.am     1 ZINC000195883296   -0.7400
19     C19     4.0482  -15.0055    5.0345 C.2      1 ZINC000195883296    0.5000
20     O20     3.5873  -13.9897    4.5586 O.2      1 ZINC000195883296   -0.5300
21     C21     4.0382  -16.2837    4.2363 C.3      1 ZINC000195883296    0.1000
22     H22     3.0455  -16.4409    3.8146 H        1 ZINC000195883296    0.1400
23     O23     4.3726  -17.3805    5.0891 O.3      1 ZINC000195883296   -0.5500
24     C24     5.0634  -16.1864    3.1048 C.3      1 ZINC000195883296   -0.0900
25     C25     4.6250  -15.1093    2.1105 C.3      1 ZINC000195883296   -0.1400
26     C26     6.4304  -15.8185    3.6853 C.3      1 ZINC000195883296   -0.1400
27     C27     5.1602  -17.5341    2.3869 C.3      1 ZINC000195883296    0.1500
28     O28     6.1177  -17.4432    1.3301 O.3      1 ZINC000195883296   -0.7700
29     P29     6.4759  -18.6793    0.3627 P.3      1 ZINC000195883296    2.2900
30     O30     6.9059  -19.8933    1.2161 O.co2    1 ZINC000195883296   -1.1000
31     O31     5.2337  -19.0536   -0.4762 O.co2    1 ZINC000195883296   -1.1100
32     O32     7.6806  -18.2603   -0.6198 O.3      1 ZINC000195883296   -1.0900
33     P33     8.6842  -19.0829   -1.5728 P.3      1 ZINC000195883296    2.2900
34     O34     9.1226  -20.3817   -0.8601 O.co2    1 ZINC000195883296   -1.1000
35     O35     7.9653  -19.4377   -2.8936 O.co2    1 ZINC000195883296   -1.1000
36     O36     9.9800  -18.1824   -1.8922 O.3      1 ZINC000195883296   -0.7700
37     C37    11.1039  -18.6692   -2.6282 C.3      1 ZINC000195883296    0.1400
38     C38    12.1526  -17.5618   -2.7496 C.3      1 ZINC000195883296    0.0700
39     H39    11.7072  -16.6636   -3.1772 H        1 ZINC000195883296    0.1000
40     O40    12.7286  -17.2710   -1.4574 O.3      1 ZINC000195883296   -0.3500
41     C41    13.9883  -16.6234   -1.7394 C.3      1 ZINC000195883296    0.2600
42     H42    13.8261  -15.5808   -2.0131 H        1 ZINC000195883296    0.1200
43     N43    14.8786  -16.7126   -0.5794 N.pl3    1 ZINC000195883296   -0.4500
44     C44    14.8231  -17.6489    0.4099 C.2      1 ZINC000195883296    0.2900
45     N45    15.7635  -17.4301    1.2824 N.2      1 ZINC000195883296   -0.4800
46     C46    16.4802  -16.3426    0.9098 C.ar     1 ZINC000195883296   -0.1000
47     C47    17.5816  -15.6540    1.4455 C.ar     1 ZINC000195883296    0.5000
48     N48    18.1745  -16.0738    2.6234 N.pl3    1 ZINC000195883296   -0.8300
49     N49    18.0412  -14.5903    0.7944 N.ar     1 ZINC000195883296   -0.6000
50     C50    17.4821  -14.1828   -0.3303 C.ar     1 ZINC000195883296    0.3400
51     N51    16.4491  -14.7960   -0.8686 N.ar     1 ZINC000195883296   -0.5400
52     C52    15.9247  -15.8726   -0.2924 C.ar     1 ZINC000195883296    0.2900
53     C53    14.5767  -17.4075   -2.9334 C.3      1 ZINC000195883296    0.0600
54     H54    15.2577  -18.1829   -2.5827 H        1 ZINC000195883296    0.0700
55     O55    15.2481  -16.5220   -3.8318 O.3      1 ZINC000195883296   -0.5000
56     C56    13.3399  -18.0380   -3.6156 C.3      1 ZINC000195883296    0.1500
57     H57    13.4090  -19.1257   -3.6016 H        1 ZINC000195883296    0.0800
58     O58    13.2115  -17.5629   -4.9572 O.3      1 ZINC000195883296   -0.7200
59     P59    13.2059  -18.5401   -6.2367 P.3      1 ZINC000195883296    2.1200
60     O60    14.4962  -19.4286   -6.2209 O.co2    1 ZINC000195883296   -1.1900
61     O61    11.9383  -19.4593   -6.1863 O.co2    1 ZINC000195883296   -1.1700
62     O62    13.1779  -17.6833   -7.5481 O.co2    1 ZINC000195883296   -1.1700
63     H63     8.5054   -8.8655   20.9584 H        1 ZINC000195883296    0.0500
64     H64     9.9035   -9.8239   21.5014 H        1 ZINC000195883296    0.0500
65     H65    10.1356   -8.4815   20.3558 H        1 ZINC000195883296    0.0500
66     H66    10.2208  -10.6694   19.1921 H        1 ZINC000195883296    0.0600
67     H67     8.5906  -11.0534   19.7946 H        1 ZINC000195883296    0.0600
68     H68     7.6854   -9.0735   18.6075 H        1 ZINC000195883296    0.0600
69     H69     9.3157   -8.6895   18.0049 H        1 ZINC000195883296    0.0700
70     H70     9.4009  -10.8774   16.8411 H        1 ZINC000195883296    0.0700
71     H71     7.7706  -11.2614   17.4437 H        1 ZINC000195883296    0.0700
72     H72     9.7356   -9.1487   15.1289 H        1 ZINC000195883296    0.0600
73     H73     8.3816   -8.1162   14.6103 H        1 ZINC000195883296    0.0700
74     H74     9.0478   -7.9520   16.2527 H        1 ZINC000195883296    0.0700
75     H75     7.6608  -12.1086   12.3633 H        1 ZINC000195883296    0.1000
76     H76     6.0368  -12.3604   13.0472 H        1 ZINC000195883296    0.1000
77     H77     5.0601  -10.9736   11.2385 H        1 ZINC000195883296    0.0800
78     H78     6.6840  -10.7218   10.5547 H        1 ZINC000195883296    0.0800
79     H79     6.2388  -13.5007   10.7904 H        1 ZINC000195883296    0.4000
80     H80     6.2920  -14.4255    8.2597 H        1 ZINC000195883296    0.1100
81     H81     4.6680  -14.6774    8.9435 H        1 ZINC000195883296    0.1000
82     H82     3.6913  -13.2905    7.1349 H        1 ZINC000195883296    0.0700
83     H83     5.3152  -13.0387    6.4510 H        1 ZINC000195883296    0.0800
84     H84     4.8700  -15.8177    6.6868 H        1 ZINC000195883296    0.4000
85     H85     5.2450  -17.3075    5.4999 H        1 ZINC000195883296    0.3700
86     H86     4.6312  -14.1366    2.6024 H        1 ZINC000195883296    0.0600
87     H87     5.3130  -15.0934    1.2652 H        1 ZINC000195883296    0.0800
88     H88     3.6184  -15.3305    1.7556 H        1 ZINC000195883296    0.0500
89     H89     6.7427  -16.5859    4.3936 H        1 ZINC000195883296    0.0500
90     H90     7.1608  -15.7492    2.8792 H        1 ZINC000195883296    0.0800
91     H91     6.3615  -14.8584    4.1967 H        1 ZINC000195883296    0.0400
92     H92     5.4725  -18.3014    3.0952 H        1 ZINC000195883296    0.0600
93     H93     4.1863  -17.7962    1.9733 H        1 ZINC000195883296    0.0500
94     H94    11.5365  -19.5238   -2.1079 H        1 ZINC000195883296    0.0600
95     H95    10.7816  -18.9750   -3.6235 H        1 ZINC000195883296    0.1000
96     H96    14.1043  -18.4533    0.4621 H        1 ZINC000195883296    0.2300
97     H97    17.8301  -16.8519    3.0892 H        1 ZINC000195883296    0.4200
98     H98    18.9344  -15.5901    2.9832 H        1 ZINC000195883296    0.4000
99     H99    17.8873  -13.3136   -0.8269 H        1 ZINC000195883296    0.2000
100    H100   15.9966  -16.0541   -3.4370 H        1 ZINC000195883296    0.3500
@<TRIPOS>BOND
1     1     2     1
2     1     63    1
3     1     64    1
4     1     65    1
5     2     3     1
6     2     66    1
7     2     67    1
8     3     4     1
9     3     68    1
10    3     69    1
11    4     5     1
12    4     70    1
13    4     71    1
14    5     6     1
15    5     7     1
16    5     8     1
17    7     72    1
18    7     73    1
19    7     74    1
20    8     9     2
21    8     10    1
22    10    11    1
23    11    12    1
24    11    75    1
25    11    76    1
26    12    13    1
27    12    77    1
28    12    78    1
29    13    14    am
30    13    79    1
31    14    15    2
32    14    16    1
33    16    17    1
34    16    80    1
35    16    81    1
36    17    18    1
37    17    82    1
38    17    83    1
39    18    19    am
40    18    84    1
41    19    20    2
42    19    21    1
43    21    22    1
44    21    23    1
45    21    24    1
46    23    85    1
47    24    25    1
48    24    26    1
49    24    27    1
50    25    86    1
51    25    87    1
52    25    88    1
53    26    89    1
54    26    90    1
55    26    91    1
56    27    28    1
57    27    92    1
58    27    93    1
59    28    29    1
60    29    30    ar
61    29    31    ar
62    29    32    1
63    32    33    1
64    33    34    ar
65    33    35    ar
66    33    36    1
67    36    37    1
68    37    38    1
69    37    94    1
70    37    95    1
71    38    39    1
72    38    56    1
73    38    40    1
74    40    41    1
75    41    42    1
76    41    43    1
77    41    53    1
78    43    52    1
79    43    44    1
80    44    45    2
81    44    96    1
82    45    46    1
83    46    52    ar
84    46    47    ar
85    47    48    1
86    47    49    ar
87    48    97    1
88    48    98    1
89    49    50    ar
90    50    51    ar
91    50    99    1
92    51    52    ar
93    53    54    1
94    53    55    1
95    53    56    1
96    55    100   1
97    56    57    1
98    56    58    1
99    58    59    1
100   59    60    ar
101   59    61    ar
102   59    62    ar
@<TRIPOS>SUBSTRUCTURE
1   ZINC000195883296 1     RESIDUE    1   A     ZIN   1
@<TRIPOS>MOLECULE
ZINC000196086506
103   105   1     0     0
SMALL
USER_CHARGES
@<TRIPOS>ATOM
1      C1    -10.0246    1.3557   10.4459 C.3      1 ZINC000196086506   -0.1500
2      C2     -9.2257    2.1750   11.4615 C.3      1 ZINC000196086506   -0.1200
3      C3     -7.9914    1.3832   11.8977 C.3      1 ZINC000196086506   -0.1100
4      C4     -7.1244    2.2522   12.8109 C.3      1 ZINC000196086506   -0.1100
5      C5     -7.8813    2.5414   14.1087 C.3      1 ZINC000196086506   -0.1000
6      C6     -7.0880    3.5439   14.9493 C.3      1 ZINC000196086506   -0.1300
7      C7     -7.9039    3.9328   16.1838 C.3      1 ZINC000196086506   -0.1500
8      C8     -5.8431    1.5251   13.1280 C.2      1 ZINC000196086506    0.3300
9      O9     -5.5628    1.2638   14.2792 O.2      1 ZINC000196086506   -0.4400
10     S10    -4.7830    1.0678   11.8639 S.3      1 ZINC000196086506   -0.1200
11     C11    -3.4756    0.2657   12.8248 C.3      1 ZINC000196086506   -0.1200
12     C12    -2.3839   -0.2389   11.8790 C.3      1 ZINC000196086506    0.1400
13     N13    -1.3257   -0.8881   12.6567 N.am     1 ZINC000196086506   -0.7300
14     C14    -0.2537   -1.4121   12.0301 C.2      1 ZINC000196086506    0.5200
15     O15    -0.1651   -1.3462   10.8223 O.2      1 ZINC000196086506   -0.5300
16     C16     0.8349   -2.0800   12.8301 C.3      1 ZINC000196086506   -0.1500
17     C17     1.9265   -2.5845   11.8843 C.3      1 ZINC000196086506    0.1400
18     N18     2.9847   -3.2337   12.6621 N.am     1 ZINC000196086506   -0.7400
19     C19     4.0567   -3.7578   12.0354 C.2      1 ZINC000196086506    0.5000
20     O20     4.1911   -3.6118   10.8390 O.2      1 ZINC000196086506   -0.5200
21     C21     5.0885   -4.5250   12.8215 C.3      1 ZINC000196086506    0.1000
22     H22     6.0799   -4.1271   12.6051 H        1 ZINC000196086506    0.1400
23     O23     4.8172   -4.3943   14.2184 O.3      1 ZINC000196086506   -0.5500
24     C24     5.0348   -6.0025   12.4276 C.3      1 ZINC000196086506   -0.0900
25     C25     3.6069   -6.5244   12.5990 C.3      1 ZINC000196086506   -0.1400
26     C26     5.4623   -6.1566   10.9666 C.3      1 ZINC000196086506   -0.1400
27     C27     5.9817   -6.8038   13.3232 C.3      1 ZINC000196086506    0.1500
28     O28     5.9316   -8.1837   12.9553 O.3      1 ZINC000196086506   -0.7700
29     P29     6.8039   -9.3195   13.6909 P.3      1 ZINC000196086506    2.2900
30     O30     8.2979   -8.9280   13.6509 O.co2    1 ZINC000196086506   -1.1000
31     O31     6.3449   -9.4505   15.1603 O.co2    1 ZINC000196086506   -1.1100
32     O32     6.5976  -10.7270   12.9368 O.3      1 ZINC000196086506   -1.0900
33     P33     7.3799  -12.1340   12.9609 P.3      1 ZINC000196086506    2.2900
34     O34     8.9023  -11.8759   13.0128 O.co2    1 ZINC000196086506   -1.1000
35     O35     6.9515  -12.9401   14.2074 O.co2    1 ZINC000196086506   -1.1000
36     O36     7.0222  -12.9698   11.6322 O.3      1 ZINC000196086506   -0.7700
37     C37     7.6391  -14.2173   11.3078 C.3      1 ZINC000196086506    0.1400
38     C38     7.0728  -14.7376    9.9852 C.3      1 ZINC000196086506    0.0700
39     H39     5.9850  -14.7884   10.0329 H        1 ZINC000196086506    0.1000
40     O40     7.4891  -13.8905    8.8920 O.3      1 ZINC000196086506   -0.3500
41     C41     7.3452  -14.7018    7.7059 C.3      1 ZINC000196086506    0.2600
42     H42     6.2992  -14.7487    7.4028 H        1 ZINC000196086506    0.1200
43     N43     8.1668  -14.1651    6.6182 N.pl3    1 ZINC000196086506   -0.4500
44     C44     9.2757  -13.3840    6.7547 C.2      1 ZINC000196086506    0.2900
45     N45     9.7579  -13.0877    5.5829 N.2      1 ZINC000196086506   -0.4800
46     C46     8.9915  -13.6582    4.6225 C.ar     1 ZINC000196086506   -0.1000
47     C47     9.0243  -13.6843    3.2180 C.ar     1 ZINC000196086506    0.5000
48     N48    10.0150  -13.0159    2.5203 N.pl3    1 ZINC000196086506   -0.8300
49     N49     8.0818  -14.3662    2.5752 N.ar     1 ZINC000196086506   -0.6000
50     C50     7.1329  -15.0073    3.2326 C.ar     1 ZINC000196086506    0.3400
51     N51     7.0623  -15.0103    4.5471 N.ar     1 ZINC000196086506   -0.5400
52     C52     7.9647  -14.3612    5.2754 C.ar     1 ZINC000196086506    0.2900
53     C53     7.8478  -16.1020    8.1220 C.3      1 ZINC000196086506    0.0600
54     H54     8.8991  -16.2236    7.8611 H        1 ZINC000196086506    0.0700
55     O55     7.0589  -17.1211    7.5046 O.3      1 ZINC000196086506   -0.5000
56     C56     7.6622  -16.1274    9.6575 C.3      1 ZINC000196086506    0.1500
57     H57     8.6222  -16.2609   10.1561 H        1 ZINC000196086506    0.0800
58     O58     6.7549  -17.1649   10.0351 O.3      1 ZINC000196086506   -0.7200
59     P59     7.1561  -18.3586   11.0381 P.3      1 ZINC000196086506    2.1200
60     O60     8.4347  -19.0860   10.4992 O.co2    1 ZINC000196086506   -1.1900
61     O61     7.4506  -17.7694   12.4596 O.co2    1 ZINC000196086506   -1.1700
62     O62     5.9735  -19.3818   11.1317 O.co2    1 ZINC000196086506   -1.1700
63     H63   -10.3379    0.4168   10.9024 H        1 ZINC000196086506    0.0600
64     H64   -10.9040    1.9198   10.1352 H        1 ZINC000196086506    0.0500
65     H65    -9.4011    1.1467    9.5766 H        1 ZINC000196086506    0.0600
66     H66    -8.9124    3.1139   11.0049 H        1 ZINC000196086506    0.0600
67     H67    -9.8492    2.3840   12.3308 H        1 ZINC000196086506    0.0700
68     H68    -8.3050    0.4895   12.4371 H        1 ZINC000196086506    0.0700
69     H69    -7.4160    1.0936   11.0183 H        1 ZINC000196086506    0.0800
70     H70    -6.8943    3.1913   12.3075 H        1 ZINC000196086506    0.1100
71     H71    -8.8602    2.9591   13.8731 H        1 ZINC000196086506    0.0800
72     H72    -8.0069    1.6155   14.6701 H        1 ZINC000196086506    0.0700
73     H73    -6.1476    3.0909   15.2632 H        1 ZINC000196086506    0.0700
74     H74    -6.8820    4.4339   14.3547 H        1 ZINC000196086506    0.0600
75     H75    -8.8443    4.3858   15.8698 H        1 ZINC000196086506    0.0500
76     H76    -8.1099    3.0428   16.7783 H        1 ZINC000196086506    0.0500
77     H77    -7.3387    4.6470   16.7826 H        1 ZINC000196086506    0.0500
78     H78    -3.0469    0.9830   13.5247 H        1 ZINC000196086506    0.1000
79     H79    -3.8946   -0.5752   13.3774 H        1 ZINC000196086506    0.1000
80     H80    -2.8126   -0.9561   11.1791 H        1 ZINC000196086506    0.0800
81     H81    -1.9648    0.6020   11.3263 H        1 ZINC000196086506    0.0800
82     H82    -1.3966   -0.9408   13.6227 H        1 ZINC000196086506    0.4000
83     H83     1.2636   -1.3627   13.5300 H        1 ZINC000196086506    0.1000
84     H84     0.4158   -2.9208   13.3828 H        1 ZINC000196086506    0.1100
85     H85     1.4979   -3.3018   11.1844 H        1 ZINC000196086506    0.0800
86     H86     2.3456   -1.7436   11.3317 H        1 ZINC000196086506    0.0700
87     H87     2.9139   -3.2865   13.6281 H        1 ZINC000196086506    0.4000
88     H88     3.9496   -4.7290   14.4835 H        1 ZINC000196086506    0.3700
89     H89     2.9323   -5.9535   11.9609 H        1 ZINC000196086506    0.0400
90     H90     3.5687   -7.5770   12.3183 H        1 ZINC000196086506    0.0800
91     H91     3.3024   -6.4146   13.6398 H        1 ZINC000196086506    0.0500
92     H92     6.4926   -5.8197   10.8520 H        1 ZINC000196086506    0.0500
93     H93     5.3880   -7.2042   10.6749 H        1 ZINC000196086506    0.0700
94     H94     4.8108   -5.5557   10.3321 H        1 ZINC000196086506    0.0600
95     H95     6.9990   -6.4319   13.2011 H        1 ZINC000196086506    0.0500
96     H96     5.6772   -6.6940   14.3641 H        1 ZINC000196086506    0.0600
97     H97     8.7157  -14.0760   11.2116 H        1 ZINC000196086506    0.0600
98     H98     7.4367  -14.9393   12.0989 H        1 ZINC000196086506    0.1000
99     H99     9.6921  -13.0585    7.6966 H        1 ZINC000196086506    0.2300
100    H100   10.6976  -12.5219    3.0009 H        1 ZINC000196086506    0.4200
101    H101   10.0269  -13.0414    1.5507 H        1 ZINC000196086506    0.4000
102    H102    6.3865  -15.5492    2.6707 H        1 ZINC000196086506    0.2000
103    H103    7.0915  -17.1124    6.5382 H        1 ZINC000196086506    0.3500
@<TRIPOS>BOND
1     1     2     1
2     1     63    1
3     1     64    1
4     1     65    1
5     2     3     1
6     2     66    1
7     2     67    1
8     3     4     1
9     3     68    1
10    3     69    1
11    4     5     1
12    4     8     1
13    4     70    1
14    5     6     1
15    5     71    1
16    5     72    1
17    6     7     1
18    6     73    1
19    6     74    1
20    7     75    1
21    7     76    1
22    7     77    1
23    8     9     2
24    8     10    1
25    10    11    1
26    11    12    1
27    11    78    1
28    11    79    1
29    12    13    1
30    12    80    1
31    12    81    1
32    13    14    am
33    13    82    1
34    14    15    2
35    14    16    1
36    16    17    1
37    16    83    1
38    16    84    1
39    17    18    1
40    17    85    1
41    17    86    1
42    18    19    am
43    18    87    1
44    19    20    2
45    19    21    1
46    21    22    1
47    21    23    1
48    21    24    1
49    23    88    1
50    24    25    1
51    24    26    1
52    24    27    1
53    25    89    1
54    25    90    1
55    25    91    1
56    26    92    1
57    26    93    1
58    26    94    1
59    27    28    1
60    27    95    1
61    27    96    1
62    28    29    1
63    29    30    ar
64    29    31    ar
65    29    32    1
66    32    33    1
67    33    34    ar
68    33    35    ar
69    33    36    1
70    36    37    1
71    37    38    1
72    37    97    1
73    37    98    1
74    38    39    1
75    38    56    1
76    38    40    1
77    40    41    1
78    41    42    1
79    41    43    1
80    41    53    1
81    43    52    1
82    43    44    1
83    44    45    2
84    44    99    1
85    45    46    1
86    46    52    ar
87    46    47    ar
88    47    48    1
89    47    49    ar
90    48    100   1
91    48    101   1
92    49    50    ar
93    50    51    ar
94    50    102   1
95    51    52    ar
96    53    54    1
97    53    55    1
98    53    56    1
99    55    103   1
100   56    57    1
101   56    58    1
102   58    59    1
103   59    60    ar
104   59    61    ar
105   59    62    ar
@<TRIPOS>SUBSTRUCTURE
1   ZINC000196086506 1     RESIDUE    1   A     ZIN   1
@<TRIPOS>MOLECULE
ZINC000196513291
99    101   1     0     0
SMALL
USER_CHARGES
@<TRIPOS>ATOM
1      C1    -16.0866   -7.5655   17.5000 C.3      1 ZINC000196513291   -0.1500
2      C2    -15.4814   -8.7119   16.6874 C.3      1 ZINC000196513291   -0.1200
3      C3    -13.9551   -8.6103   16.7205 C.3      1 ZINC000196513291   -0.1000
4      C4    -13.3590   -9.7394   15.9201 C.2      1 ZINC000196513291   -0.1100
5      C5    -12.5059   -9.4766   14.9288 C.2      1 ZINC000196513291   -0.1600
6      C6    -11.9269  -10.5732   14.1515 C.2      1 ZINC000196513291   -0.0100
7      C7    -11.0626  -10.3068   13.1472 C.2      1 ZINC000196513291   -0.2200
8      C8    -10.4840  -11.4028   12.3703 C.2      1 ZINC000196513291    0.3800
9      O9    -10.7810  -12.5551   12.6284 O.2      1 ZINC000196513291   -0.4500
10     S10    -9.3571  -11.0556   11.0610 S.3      1 ZINC000196513291   -0.1400
11     C11    -9.0001  -12.7387   10.4990 C.3      1 ZINC000196513291   -0.1100
12     C12    -8.0129  -12.6878    9.3311 C.3      1 ZINC000196513291    0.1400
13     N13    -7.7239  -14.0500    8.8763 N.am     1 ZINC000196513291   -0.7300
14     C14    -6.8736  -14.2517    7.8502 C.2      1 ZINC000196513291    0.5200
15     O15    -6.3477  -13.3055    7.3035 O.2      1 ZINC000196513291   -0.5300
16     C16    -6.5763  -15.6531    7.3823 C.3      1 ZINC000196513291   -0.1500
17     C17    -5.5891  -15.6021    6.2145 C.3      1 ZINC000196513291    0.1400
18     N18    -5.3001  -16.9644    5.7596 N.am     1 ZINC000196513291   -0.7400
19     C19    -4.4498  -17.1661    4.7335 C.2      1 ZINC000196513291    0.5000
20     O20    -3.9946  -16.2190    4.1280 O.2      1 ZINC000196513291   -0.5200
21     C21    -4.0647  -18.5685    4.3386 C.3      1 ZINC000196513291    0.1000
22     H22    -2.9783  -18.6531    4.3120 H        1 ZINC000196513291    0.1400
23     O23    -4.5912  -19.4935    5.2922 O.3      1 ZINC000196513291   -0.5500
24     C24    -4.6348  -18.8833    2.9542 C.3      1 ZINC000196513291   -0.0900
25     C25    -6.1442  -18.6329    2.9552 C.3      1 ZINC000196513291   -0.1400
26     C26    -3.9692  -17.9827    1.9117 C.3      1 ZINC000196513291   -0.1400
27     C27    -4.3612  -20.3490    2.6111 C.3      1 ZINC000196513291    0.1500
28     O28    -4.8937  -20.6430    1.3181 O.3      1 ZINC000196513291   -0.7700
29     P29    -4.7865  -22.0972    0.6355 P.3      1 ZINC000196513291    2.2900
30     O30    -3.3061  -22.5369    0.5902 O.co2    1 ZINC000196513291   -1.1000
31     O31    -5.6013  -23.1160    1.4632 O.co2    1 ZINC000196513291   -1.1100
32     O32    -5.3729  -22.0315   -0.8625 O.3      1 ZINC000196513291   -1.0900
33     P33    -5.2845  -23.0049   -2.1419 P.3      1 ZINC000196513291    2.2900
34     O34    -3.8576  -23.5878   -2.2478 O.co2    1 ZINC000196513291   -1.1000
35     O35    -6.3012  -24.1574   -1.9834 O.co2    1 ZINC000196513291   -1.1000
36     O36    -5.6235  -22.1698   -3.4760 O.3      1 ZINC000196513291   -0.7700
37     C37    -5.5278  -22.7271   -4.7884 C.3      1 ZINC000196513291    0.1400
38     C38    -5.9185  -21.6686   -5.8217 C.3      1 ZINC000196513291    0.0700
39     H39    -6.9027  -21.2603   -5.5920 H        1 ZINC000196513291    0.1000
40     O40    -4.9327  -20.6138   -5.8584 O.3      1 ZINC000196513291   -0.3500
41     C41    -5.1092  -19.9725   -7.1404 C.3      1 ZINC000196513291    0.2600
42     H42    -5.9696  -19.3038   -7.1149 H        1 ZINC000196513291    0.1200
43     N43    -3.9003  -19.2327   -7.5112 N.pl3    1 ZINC000196513291   -0.4500
44     C44    -2.6365  -19.4748   -7.0613 C.2      1 ZINC000196513291    0.2900
45     N45    -1.8047  -18.6282   -7.5949 N.2      1 ZINC000196513291   -0.4800
46     C46    -2.4797  -17.7912   -8.4189 C.ar     1 ZINC000196513291   -0.1000
47     C47    -2.1194  -16.7091   -9.2396 C.ar     1 ZINC000196513291    0.5000
48     N48    -0.8026  -16.2919   -9.3235 N.pl3    1 ZINC000196513291   -0.8300
49     N49    -3.0726  -16.0957   -9.9336 N.ar     1 ZINC000196513291   -0.6000
50     C50    -4.3315  -16.4872   -9.8601 C.ar     1 ZINC000196513291    0.3400
51     N51    -4.7152  -17.4949   -9.1048 N.ar     1 ZINC000196513291   -0.5400
52     C52    -3.8316  -18.1728   -8.3797 C.ar     1 ZINC000196513291    0.2900
53     C53    -5.3581  -21.1317   -8.1306 C.3      1 ZINC000196513291    0.0600
54     H54    -4.4261  -21.4318   -8.6095 H        1 ZINC000196513291    0.0700
55     O55    -6.3246  -20.7525   -9.1126 O.3      1 ZINC000196513291   -0.5000
56     C56    -5.9057  -22.2740   -7.2429 C.3      1 ZINC000196513291    0.1500
57     H57    -5.2437  -23.1390   -7.2821 H        1 ZINC000196513291    0.0800
58     O58    -7.2262  -22.6366   -7.6515 O.3      1 ZINC000196513291   -0.7200
59     P59    -7.6204  -24.1244   -8.1238 P.3      1 ZINC000196513291    2.1200
60     O60    -6.6757  -24.5690   -9.2918 O.co2    1 ZINC000196513291   -1.1900
61     O61    -7.4627  -25.1137   -6.9192 O.co2    1 ZINC000196513291   -1.1700
62     O62    -9.1064  -24.1383   -8.6198 O.co2    1 ZINC000196513291   -1.1700
63     H63   -17.1739   -7.6380   17.4764 H        1 ZINC000196513291    0.0600
64     H64   -15.7405   -7.6292   18.5316 H        1 ZINC000196513291    0.0500
65     H65   -15.7766   -6.6128   17.0709 H        1 ZINC000196513291    0.0500
66     H66   -15.7914   -9.6647   17.1165 H        1 ZINC000196513291    0.0600
67     H67   -15.8275   -8.6483   15.6558 H        1 ZINC000196513291    0.0600
68     H68   -13.6451   -7.6575   16.2913 H        1 ZINC000196513291    0.0700
69     H69   -13.6090   -8.6739   17.7521 H        1 ZINC000196513291    0.0800
70     H70   -13.6224  -10.7615   16.1490 H        1 ZINC000196513291    0.1200
71     H71   -12.2424   -8.4545   14.6999 H        1 ZINC000196513291    0.1200
72     H72   -12.1904  -11.5952   14.3804 H        1 ZINC000196513291    0.1300
73     H73   -10.7991   -9.2848   12.9183 H        1 ZINC000196513291    0.1400
74     H74    -8.5644  -13.3106   11.3183 H        1 ZINC000196513291    0.1000
75     H75    -9.9239  -13.2166   10.1732 H        1 ZINC000196513291    0.1000
76     H76    -8.4485  -12.1159    8.5118 H        1 ZINC000196513291    0.0800
77     H77    -7.0890  -12.2098    9.6569 H        1 ZINC000196513291    0.0800
78     H78    -8.1445  -14.8068    9.3135 H        1 ZINC000196513291    0.4000
79     H79    -6.1407  -16.2249    8.2016 H        1 ZINC000196513291    0.1000
80     H80    -7.5002  -16.1310    7.0565 H        1 ZINC000196513291    0.1100
81     H81    -6.0247  -15.0302    5.3952 H        1 ZINC000196513291    0.0800
82     H82    -4.6653  -15.1242    6.5402 H        1 ZINC000196513291    0.0700
83     H83    -5.7207  -17.7212    6.1969 H        1 ZINC000196513291    0.4000
84     H84    -5.5549  -19.4732    5.3691 H        1 ZINC000196513291    0.3700
85     H85    -6.3391  -17.5887    3.1996 H        1 ZINC000196513291    0.0400
86     H86    -6.5504  -18.8572    1.9689 H        1 ZINC000196513291    0.0800
87     H87    -6.6184  -19.2745    3.6979 H        1 ZINC000196513291    0.0500
88     H88    -2.8860  -18.0766    1.9889 H        1 ZINC000196513291    0.0500
89     H89    -4.2898  -18.2832    0.9142 H        1 ZINC000196513291    0.0800
90     H90    -4.2577  -16.9467    2.0893 H        1 ZINC000196513291    0.0600
91     H91    -3.2859  -20.5274    2.6104 H        1 ZINC000196513291    0.0500
92     H92    -4.8354  -20.9906    3.3538 H        1 ZINC000196513291    0.0600
93     H93    -4.5037  -23.0526   -4.9711 H        1 ZINC000196513291    0.0600
94     H94    -6.2005  -23.5808   -4.8705 H        1 ZINC000196513291    0.1000
95     H95    -2.3656  -20.2540   -6.3642 H        1 ZINC000196513291    0.2300
96     H96    -0.1158  -16.7478   -8.8123 H        1 ZINC000196513291    0.4200
97     H97    -0.5663  -15.5435   -9.8936 H        1 ZINC000196513291    0.4000
98     H98    -5.0744  -15.9607  -10.4409 H        1 ZINC000196513291    0.2000
99     H99    -6.0566  -20.0006   -9.6584 H        1 ZINC000196513291    0.3500
@<TRIPOS>BOND
1     1     2     1
2     1     63    1
3     1     64    1
4     1     65    1
5     2     3     1
6     2     66    1
7     2     67    1
8     3     4     1
9     3     68    1
10    3     69    1
11    4     5     2
12    4     70    1
13    5     6     1
14    5     71    1
15    6     7     2
16    6     72    1
17    7     8     1
18    7     73    1
19    8     9     2
20    8     10    1
21    10    11    1
22    11    12    1
23    11    74    1
24    11    75    1
25    12    13    1
26    12    76    1
27    12    77    1
28    13    14    am
29    13    78    1
30    14    15    2
31    14    16    1
32    16    17    1
33    16    79    1
34    16    80    1
35    17    18    1
36    17    81    1
37    17    82    1
38    18    19    am
39    18    83    1
40    19    20    2
41    19    21    1
42    21    22    1
43    21    23    1
44    21    24    1
45    23    84    1
46    24    25    1
47    24    26    1
48    24    27    1
49    25    85    1
50    25    86    1
51    25    87    1
52    26    88    1
53    26    89    1
54    26    90    1
55    27    28    1
56    27    91    1
57    27    92    1
58    28    29    1
59    29    30    ar
60    29    31    ar
61    29    32    1
62    32    33    1
63    33    34    ar
64    33    35    ar
65    33    36    1
66    36    37    1
67    37    38    1
68    37    93    1
69    37    94    1
70    38    39    1
71    38    56    1
72    38    40    1
73    40    41    1
74    41    42    1
75    41    43    1
76    41    53    1
77    43    52    1
78    43    44    1
79    44    45    2
80    44    95    1
81    45    46    1
82    46    52    ar
83    46    47    ar
84    47    48    1
85    47    49    ar
86    48    96    1
87    48    97    1
88    49    50    ar
89    50    51    ar
90    50    98    1
91    51    52    ar
92    53    54    1
93    53    55    1
94    53    56    1
95    55    99    1
96    56    57    1
97    56    58    1
98    58    59    1
99    59    60    ar
100   59    61    ar
101   59    62    ar
@<TRIPOS>SUBSTRUCTURE
1   ZINC000196513291 1     RESIDUE    1   A     ZIN   1
@<TRIPOS>MOLECULE
ZINC000197688097
105   107   1     0     0
SMALL
USER_CHARGES
@<TRIPOS>ATOM
1      C1    -19.6327   -8.5802   18.2820 C.3      1 ZINC000197688097   -0.1500
2      C2    -19.0275   -9.7266   17.4694 C.3      1 ZINC000197688097   -0.1300
3      C3    -17.5012   -9.6250   17.5024 C.3      1 ZINC000197688097   -0.1200
4      C4    -16.8960  -10.7714   16.6898 C.3      1 ZINC000197688097   -0.1200
5      C5    -15.3697  -10.6697   16.7229 C.3      1 ZINC000197688097   -0.1000
6      C6    -14.7736  -11.7988   15.9225 C.2      1 ZINC000197688097   -0.1100
7      C7    -13.9205  -11.5360   14.9312 C.2      1 ZINC000197688097   -0.1600
8      C8    -13.3415  -12.6326   14.1539 C.2      1 ZINC000197688097   -0.0100
9      C9    -12.4772  -12.3662   13.1496 C.2      1 ZINC000197688097   -0.2200
10     C10   -11.8986  -13.4622   12.3727 C.2      1 ZINC000197688097    0.3800
11     O11   -12.1956  -14.6146   12.6308 O.2      1 ZINC000197688097   -0.4500
12     S12   -10.7718  -13.1150   11.0634 S.3      1 ZINC000197688097   -0.1400
13     C13   -10.4147  -14.7981   10.5014 C.3      1 ZINC000197688097   -0.1100
14     C14    -9.4275  -14.7472    9.3336 C.3      1 ZINC000197688097    0.1400
15     N15    -9.1385  -16.1094    8.8787 N.am     1 ZINC000197688097   -0.7300
16     C16    -8.2882  -16.3111    7.8527 C.2      1 ZINC000197688097    0.5200
17     O17    -7.7623  -15.3649    7.3059 O.2      1 ZINC000197688097   -0.5300
18     C18    -7.9909  -17.7125    7.3847 C.3      1 ZINC000197688097   -0.1500
19     C19    -7.0038  -17.6615    6.2169 C.3      1 ZINC000197688097    0.1400
20     N20    -6.7148  -19.0238    5.7620 N.am     1 ZINC000197688097   -0.7400
21     C21    -5.8645  -19.2255    4.7360 C.2      1 ZINC000197688097    0.5000
22     O22    -5.4093  -18.2784    4.1305 O.2      1 ZINC000197688097   -0.5200
23     C23    -5.4793  -20.6279    4.3411 C.3      1 ZINC000197688097    0.1000
24     H24    -4.3929  -20.7125    4.3144 H        1 ZINC000197688097    0.1400
25     O25    -6.0058  -21.5529    5.2946 O.3      1 ZINC000197688097   -0.5500
26     C26    -6.0495  -20.9427    2.9566 C.3      1 ZINC000197688097   -0.0900
27     C27    -7.5589  -20.6924    2.9577 C.3      1 ZINC000197688097   -0.1400
28     C28    -5.3839  -20.0421    1.9141 C.3      1 ZINC000197688097   -0.1400
29     C29    -5.7759  -22.4084    2.6136 C.3      1 ZINC000197688097    0.1500
30     O30    -6.3084  -22.7024    1.3205 O.3      1 ZINC000197688097   -0.7700
31     P31    -6.2011  -24.1566    0.6379 P.3      1 ZINC000197688097    2.2900
32     O32    -4.7207  -24.5963    0.5926 O.co2    1 ZINC000197688097   -1.1000
33     O33    -7.0159  -25.1754    1.4657 O.co2    1 ZINC000197688097   -1.1100
34     O34    -6.7875  -24.0909   -0.8600 O.3      1 ZINC000197688097   -1.0900
35     P35    -6.6991  -25.0643   -2.1394 P.3      1 ZINC000197688097    2.2900
36     O36    -5.2722  -25.6472   -2.2454 O.co2    1 ZINC000197688097   -1.1000
37     O37    -7.7158  -26.2168   -1.9809 O.co2    1 ZINC000197688097   -1.1000
38     O38    -7.0381  -24.2293   -3.4735 O.3      1 ZINC000197688097   -0.7700
39     C39    -6.9424  -24.7866   -4.7859 C.3      1 ZINC000197688097    0.1400
40     C40    -7.3331  -23.7280   -5.8192 C.3      1 ZINC000197688097    0.0700
41     H41    -8.3173  -23.3197   -5.5896 H        1 ZINC000197688097    0.1000
42     O42    -6.3473  -22.6732   -5.8560 O.3      1 ZINC000197688097   -0.3500
43     C43    -6.5238  -22.0319   -7.1379 C.3      1 ZINC000197688097    0.2600
44     H44    -7.3842  -21.3632   -7.1124 H        1 ZINC000197688097    0.1200
45     N45    -5.3150  -21.2921   -7.5088 N.pl3    1 ZINC000197688097   -0.4500
46     C46    -4.0511  -21.5343   -7.0588 C.2      1 ZINC000197688097    0.2900
47     N47    -3.2193  -20.6876   -7.5925 N.2      1 ZINC000197688097   -0.4800
48     C48    -3.8944  -19.8506   -8.4165 C.ar     1 ZINC000197688097   -0.1000
49     C49    -3.5340  -18.7685   -9.2371 C.ar     1 ZINC000197688097    0.5000
50     N50    -2.2172  -18.3513   -9.3211 N.pl3    1 ZINC000197688097   -0.8300
51     N51    -4.4872  -18.1552   -9.9312 N.ar     1 ZINC000197688097   -0.6000
52     C52    -5.7462  -18.5466   -9.8576 C.ar     1 ZINC000197688097    0.3400
53     N53    -6.1299  -19.5543   -9.1024 N.ar     1 ZINC000197688097   -0.5400
54     C54    -5.2463  -20.2322   -8.3773 C.ar     1 ZINC000197688097    0.2900
55     C55    -6.7728  -23.1911   -8.1282 C.3      1 ZINC000197688097    0.0600
56     H56    -5.8407  -23.4912   -8.6070 H        1 ZINC000197688097    0.0700
57     O57    -7.7392  -22.8119   -9.1101 O.3      1 ZINC000197688097   -0.5000
58     C58    -7.3203  -24.3334   -7.2404 C.3      1 ZINC000197688097    0.1500
59     H59    -6.6584  -25.1984   -7.2797 H        1 ZINC000197688097    0.0800
60     O60    -8.6408  -24.6960   -7.6490 O.3      1 ZINC000197688097   -0.7200
61     P61    -9.0350  -26.1838   -8.1213 P.3      1 ZINC000197688097    2.1200
62     O62    -8.0903  -26.6284   -9.2894 O.co2    1 ZINC000197688097   -1.1900
63     O63    -8.8773  -27.1731   -6.9168 O.co2    1 ZINC000197688097   -1.1700
64     O64   -10.5210  -26.1977   -8.6174 O.co2    1 ZINC000197688097   -1.1700
65     H65   -20.7201   -8.6527   18.2584 H        1 ZINC000197688097    0.0500
66     H66   -19.2866   -8.6439   19.3136 H        1 ZINC000197688097    0.0500
67     H67   -19.3227   -7.6275   17.8528 H        1 ZINC000197688097    0.0500
68     H68   -19.3375  -10.6794   17.8985 H        1 ZINC000197688097    0.0600
69     H69   -19.3736   -9.6630   16.4377 H        1 ZINC000197688097    0.0600
70     H70   -17.1912   -8.6722   17.0733 H        1 ZINC000197688097    0.0600
71     H71   -17.1551   -9.6886   18.5341 H        1 ZINC000197688097    0.0600
72     H72   -17.2060  -11.7241   17.1190 H        1 ZINC000197688097    0.0600
73     H73   -17.2421  -10.7077   15.6582 H        1 ZINC000197688097    0.0700
74     H74   -15.0597   -9.7169   16.2938 H        1 ZINC000197688097    0.0700
75     H75   -15.0236  -10.7333   17.7545 H        1 ZINC000197688097    0.0800
76     H76   -15.0370  -12.8209   16.1514 H        1 ZINC000197688097    0.1200
77     H77   -13.6570  -10.5139   14.7023 H        1 ZINC000197688097    0.1200
78     H78   -13.6050  -13.6546   14.3829 H        1 ZINC000197688097    0.1300
79     H79   -12.2138  -11.3442   12.9207 H        1 ZINC000197688097    0.1400
80     H80    -9.9791  -15.3700   11.3207 H        1 ZINC000197688097    0.1000
81     H81   -11.3386  -15.2760   10.1756 H        1 ZINC000197688097    0.1000
82     H82    -9.8631  -14.1753    8.5143 H        1 ZINC000197688097    0.0800
83     H83    -8.5037  -14.2692    9.6594 H        1 ZINC000197688097    0.0800
84     H84    -9.5591  -16.8663    9.3160 H        1 ZINC000197688097    0.4000
85     H85    -7.5553  -18.2844    8.2040 H        1 ZINC000197688097    0.1000
86     H86    -8.9148  -18.1904    7.0590 H        1 ZINC000197688097    0.1100
87     H87    -7.4394  -17.0896    5.3976 H        1 ZINC000197688097    0.0800
88     H88    -6.0799  -17.1836    6.5427 H        1 ZINC000197688097    0.0700
89     H89    -7.1354  -19.7806    6.1993 H        1 ZINC000197688097    0.4000
90     H90    -6.9696  -21.5326    5.3716 H        1 ZINC000197688097    0.3700
91     H91    -7.7538  -19.6481    3.2021 H        1 ZINC000197688097    0.0400
92     H92    -7.9650  -20.9166    1.9714 H        1 ZINC000197688097    0.0800
93     H93    -8.0330  -21.3340    3.7004 H        1 ZINC000197688097    0.0500
94     H94    -4.3007  -20.1360    1.9914 H        1 ZINC000197688097    0.0500
95     H95    -5.7044  -20.3426    0.9166 H        1 ZINC000197688097    0.0800
96     H96    -5.6723  -19.0061    2.0917 H        1 ZINC000197688097    0.0600
97     H97    -4.7005  -22.5868    2.6128 H        1 ZINC000197688097    0.0500
98     H98    -6.2500  -23.0500    3.3563 H        1 ZINC000197688097    0.0600
99     H99    -5.9183  -25.1120   -4.9686 H        1 ZINC000197688097    0.0600
100    H100   -7.6151  -25.6403   -4.8681 H        1 ZINC000197688097    0.1000
101    H101   -3.7803  -22.3135   -6.3618 H        1 ZINC000197688097    0.2300
102    H102   -1.5304  -18.8072   -8.8098 H        1 ZINC000197688097    0.4200
103    H103   -1.9810  -17.6029   -9.8912 H        1 ZINC000197688097    0.4000
104    H104   -6.4890  -18.0201  -10.4385 H        1 ZINC000197688097    0.2000
105    H105   -7.4713  -22.0600   -9.6559 H        1 ZINC000197688097    0.3500
@<TRIPOS>BOND
1     1     2     1
2     1     65    1
3     1     66    1
4     1     67    1
5     2     3     1
6     2     68    1
7     2     69    1
8     3     4     1
9     3     70    1
10    3     71    1
11    4     5     1
12    4     72    1
13    4     73    1
14    5     6     1
15    5     74    1
16    5     75    1
17    6     7     2
18    6     76    1
19    7     8     1
20    7     77    1
21    8     9     2
22    8     78    1
23    9     10    1
24    9     79    1
25    10    11    2
26    10    12    1
27    12    13    1
28    13    14    1
29    13    80    1
30    13    81    1
31    14    15    1
32    14    82    1
33    14    83    1
34    15    16    am
35    15    84    1
36    16    17    2
37    16    18    1
38    18    19    1
39    18    85    1
40    18    86    1
41    19    20    1
42    19    87    1
43    19    88    1
44    20    21    am
45    20    89    1
46    21    22    2
47    21    23    1
48    23    24    1
49    23    25    1
50    23    26    1
51    25    90    1
52    26    27    1
53    26    28    1
54    26    29    1
55    27    91    1
56    27    92    1
57    27    93    1
58    28    94    1
59    28    95    1
60    28    96    1
61    29    30    1
62    29    97    1
63    29    98    1
64    30    31    1
65    31    32    ar
66    31    33    ar
67    31    34    1
68    34    35    1
69    35    36    ar
70    35    37    ar
71    35    38    1
72    38    39    1
73    39    40    1
74    39    99    1
75    39    100   1
76    40    41    1
77    40    58    1
78    40    42    1
79    42    43    1
80    43    44    1
81    43    45    1
82    43    55    1
83    45    54    1
84    45    46    1
85    46    47    2
86    46    101   1
87    47    48    1
88    48    54    ar
89    48    49    ar
90    49    50    1
91    49    51    ar
92    50    102   1
93    50    103   1
94    51    52    ar
95    52    53    ar
96    52    104   1
97    53    54    ar
98    55    56    1
99    55    57    1
100   55    58    1
101   57    105   1
102   58    59    1
103   58    60    1
104   60    61    1
105   61    62    ar
106   61    63    ar
107   61    64    ar
@<TRIPOS>SUBSTRUCTURE
1   ZINC000197688097 1     RESIDUE    1   A     ZIN   1
@<TRIPOS>MOLECULE
ZINC000199630277
100   102   1     0     0
SMALL
USER_CHARGES
@<TRIPOS>ATOM
1      C1     -0.0935  -24.7118    1.0360 C.3      1 ZINC000199630277   -0.1500
2      C2     -0.0680  -23.1910    0.8696 C.3      1 ZINC000199630277   -0.1300
3      C3     -1.5011  -22.6554    0.8561 C.3      1 ZINC000199630277   -0.1200
4      C4     -1.4755  -21.1346    0.6897 C.3      1 ZINC000199630277   -0.1200
5      C5     -2.9086  -20.5990    0.6762 C.3      1 ZINC000199630277   -0.1100
6      C6     -2.8831  -19.0782    0.5098 C.3      1 ZINC000199630277   -0.1500
7      C7     -4.2947  -18.5506    0.4966 C.2      1 ZINC000199630277    0.3300
8      O8     -5.2294  -19.3159    0.6092 O.2      1 ZINC000199630277   -0.4500
9      S9     -4.5792  -16.8714    0.3226 S.3      1 ZINC000199630277   -0.1200
10     C10    -6.3883  -16.8519    0.3772 C.3      1 ZINC000199630277   -0.1200
11     C11    -6.8873  -15.4125    0.2360 C.3      1 ZINC000199630277    0.1300
12     N12    -8.3516  -15.3967    0.2802 N.am     1 ZINC000199630277   -0.7300
13     C13    -9.0164  -14.2291    0.1738 C.2      1 ZINC000199630277    0.5200
14     O14    -8.4025  -13.1916    0.0416 O.2      1 ZINC000199630277   -0.5300
15     C15   -10.5226  -14.2129    0.2192 C.3      1 ZINC000199630277   -0.1500
16     C16   -11.0216  -12.7734    0.0781 C.3      1 ZINC000199630277    0.1400
17     N17   -12.4859  -12.7576    0.1222 N.am     1 ZINC000199630277   -0.7400
18     C18   -13.1507  -11.5901    0.0159 C.2      1 ZINC000199630277    0.5000
19     O19   -12.5374  -10.5446   -0.0247 O.2      1 ZINC000199630277   -0.5200
20     C20   -14.6561  -11.5838   -0.0525 C.3      1 ZINC000199630277    0.1000
21     H21   -14.9778  -11.0173   -0.9264 H        1 ZINC000199630277    0.1400
22     O22   -15.1340  -12.9267   -0.1531 O.3      1 ZINC000199630277   -0.5500
23     C23   -15.2214  -10.9346    1.2124 C.3      1 ZINC000199630277   -0.0900
24     C24   -14.6608  -11.6466    2.4452 C.3      1 ZINC000199630277   -0.1400
25     C25   -14.8217   -9.4583    1.2503 C.3      1 ZINC000199630277   -0.1400
26     C26   -16.7471  -11.0500    1.2067 C.3      1 ZINC000199630277    0.1500
27     O27   -17.2750  -10.4437    2.3881 O.3      1 ZINC000199630277   -0.7700
28     P28   -18.8507  -10.3822    2.7130 P.3      1 ZINC000199630277    2.2900
29     O29   -19.5945   -9.7193    1.5321 O.co2    1 ZINC000199630277   -1.1000
30     O30   -19.3897  -11.8149    2.9221 O.co2    1 ZINC000199630277   -1.1100
31     O31   -19.0895   -9.5184    4.0505 O.3      1 ZINC000199630277   -1.0900
32     P32   -20.3823   -8.8362    4.7253 P.3      1 ZINC000199630277    2.2900
33     O33   -21.2656   -8.2063    3.6252 O.co2    1 ZINC000199630277   -1.1000
34     O34   -21.1933   -9.9094    5.4852 O.co2    1 ZINC000199630277   -1.1000
35     O35   -19.9096   -7.6920    5.7546 O.3      1 ZINC000199630277   -0.7700
36     C36   -20.8249   -6.8318    6.4361 C.3      1 ZINC000199630277    0.1400
37     C37   -20.0466   -5.8663    7.3322 C.3      1 ZINC000199630277    0.0700
38     H38   -19.3869   -6.4189    8.0012 H        1 ZINC000199630277    0.1000
39     O39   -19.2854   -4.9380    6.5292 O.3      1 ZINC000199630277   -0.3500
40     C40   -19.0139   -3.8169    7.3984 C.3      1 ZINC000199630277    0.2600
41     H41   -18.1961   -4.0538    8.0790 H        1 ZINC000199630277    0.1200
42     N42   -18.6903   -2.6261    6.6088 N.pl3    1 ZINC000199630277   -0.4500
43     C43   -19.0616   -2.3882    5.3189 C.2      1 ZINC000199630277    0.2900
44     N44   -18.6032   -1.2340    4.9299 N.2      1 ZINC000199630277   -0.4800
45     C45   -17.9105   -0.6595    5.9425 C.ar     1 ZINC000199630277   -0.1000
46     C46   -17.2120    0.5494    6.1008 C.ar     1 ZINC000199630277    0.5000
47     N47   -17.1313    1.4616    5.0633 N.pl3    1 ZINC000199630277   -0.8300
48     N48   -16.6309    0.7966    7.2703 N.ar     1 ZINC000199630277   -0.6000
49     C49   -16.7031   -0.0677    8.2660 C.ar     1 ZINC000199630277    0.3400
50     N50   -17.3457   -1.2121    8.1632 N.ar     1 ZINC000199630277   -0.5400
51     C51   -17.9631   -1.5431    7.0339 C.ar     1 ZINC000199630277    0.2900
52     C52   -20.3248   -3.6024    8.1870 C.3      1 ZINC000199630277    0.0600
53     H53   -20.9432   -2.8472    7.7018 H        1 ZINC000199630277    0.0700
54     O54   -20.0416   -3.2247    9.5358 O.3      1 ZINC000199630277   -0.5000
55     C55   -21.0198   -4.9836    8.1447 C.3      1 ZINC000199630277    0.1500
56     H56   -21.9819   -4.9117    7.6376 H        1 ZINC000199630277    0.0800
57     O57   -21.1892   -5.4997    9.4664 O.3      1 ZINC000199630277   -0.7200
58     P58   -22.6278   -5.8778   10.0824 P.3      1 ZINC000199630277    2.1200
59     O59   -23.5804   -4.6379    9.9837 O.co2    1 ZINC000199630277   -1.1900
60     O60   -23.2422   -7.0737    9.2783 O.co2    1 ZINC000199630277   -1.1700
61     O61   -22.4607   -6.2897   11.5847 O.co2    1 ZINC000199630277   -1.1700
62     H62     0.9275  -25.0934    1.0456 H        1 ZINC000199630277    0.0500
63     H63    -0.5854  -24.9663    1.9748 H        1 ZINC000199630277    0.0500
64     H64    -0.6407  -25.1589    0.2061 H        1 ZINC000199630277    0.0500
65     H65     0.4793  -22.7439    1.6994 H        1 ZINC000199630277    0.0600
66     H66     0.4239  -22.9365   -0.0692 H        1 ZINC000199630277    0.0600
67     H67    -2.0483  -23.1025    0.0263 H        1 ZINC000199630277    0.0600
68     H68    -1.9929  -22.9099    1.7949 H        1 ZINC000199630277    0.0600
69     H69    -0.9283  -20.6875    1.5195 H        1 ZINC000199630277    0.0600
70     H70    -0.9837  -20.8801   -0.2491 H        1 ZINC000199630277    0.0600
71     H71    -3.4559  -21.0461   -0.1536 H        1 ZINC000199630277    0.0700
72     H72    -3.4005  -20.8535    1.6150 H        1 ZINC000199630277    0.0700
73     H73    -2.3359  -18.6311    1.3397 H        1 ZINC000199630277    0.1100
74     H74    -2.3913  -18.8237   -0.4290 H        1 ZINC000199630277    0.1100
75     H75    -6.7830  -17.4551   -0.4405 H        1 ZINC000199630277    0.1000
76     H76    -6.7276  -17.2625    1.3282 H        1 ZINC000199630277    0.1000
77     H77    -6.4926  -14.8093    1.0537 H        1 ZINC000199630277    0.0800
78     H78    -6.5480  -15.0019   -0.7150 H        1 ZINC000199630277    0.0800
79     H79    -8.8426  -16.2265    0.3859 H        1 ZINC000199630277    0.4000
80     H80   -10.9173  -14.8161   -0.5984 H        1 ZINC000199630277    0.1000
81     H81   -10.8619  -14.6234    1.1703 H        1 ZINC000199630277    0.1100
82     H82   -10.6269  -12.1703    0.8957 H        1 ZINC000199630277    0.0800
83     H83   -10.6823  -12.3629   -0.8729 H        1 ZINC000199630277    0.0700
84     H84   -12.9769  -13.5875    0.2280 H        1 ZINC000199630277    0.4000
85     H85   -14.8847  -13.4898    0.5925 H        1 ZINC000199630277    0.3700
86     H86   -13.5739  -11.5644    2.4493 H        1 ZINC000199630277    0.0400
87     H87   -15.0635  -11.1841    3.3463 H        1 ZINC000199630277    0.0800
88     H88   -14.9455  -12.6984    2.4182 H        1 ZINC000199630277    0.0500
89     H89   -15.1217   -8.9766    0.3196 H        1 ZINC000199630277    0.0500
90     H90   -15.3174   -8.9691    2.0888 H        1 ZINC000199630277    0.0800
91     H91   -13.7413   -9.3773    1.3694 H        1 ZINC000199630277    0.0600
92     H92   -17.1465  -10.5428    0.3284 H        1 ZINC000199630277    0.0500
93     H93   -17.0318  -12.1018    1.1797 H        1 ZINC000199630277    0.0600
94     H94   -21.4025   -6.2645    5.7062 H        1 ZINC000199630277    0.0600
95     H95   -21.4999   -7.4307    7.0474 H        1 ZINC000199630277    0.1000
96     H96   -19.6491   -3.0589    4.7094 H        1 ZINC000199630277    0.2300
97     H97   -17.5599    1.2699    4.2145 H        1 ZINC000199630277    0.4200
98     H98   -16.6461    2.2927    5.1848 H        1 ZINC000199630277    0.4000
99     H99   -16.2164    0.1730    9.1996 H        1 ZINC000199630277    0.2000
100    H100  -19.5530   -2.3942    9.6174 H        1 ZINC000199630277    0.3500
@<TRIPOS>BOND
1     1     2     1
2     1     62    1
3     1     63    1
4     1     64    1
5     2     3     1
6     2     65    1
7     2     66    1
8     3     4     1
9     3     67    1
10    3     68    1
11    4     5     1
12    4     69    1
13    4     70    1
14    5     6     1
15    5     71    1
16    5     72    1
17    6     7     1
18    6     73    1
19    6     74    1
20    7     8     2
21    7     9     1
22    9     10    1
23    10    11    1
24    10    75    1
25    10    76    1
26    11    12    1
27    11    77    1
28    11    78    1
29    12    13    am
30    12    79    1
31    13    14    2
32    13    15    1
33    15    16    1
34    15    80    1
35    15    81    1
36    16    17    1
37    16    82    1
38    16    83    1
39    17    18    am
40    17    84    1
41    18    19    2
42    18    20    1
43    20    21    1
44    20    22    1
45    20    23    1
46    22    85    1
47    23    24    1
48    23    25    1
49    23    26    1
50    24    86    1
51    24    87    1
52    24    88    1
53    25    89    1
54    25    90    1
55    25    91    1
56    26    27    1
57    26    92    1
58    26    93    1
59    27    28    1
60    28    29    ar
61    28    30    ar
62    28    31    1
63    31    32    1
64    32    33    ar
65    32    34    ar
66    32    35    1
67    35    36    1
68    36    37    1
69    36    94    1
70    36    95    1
71    37    38    1
72    37    55    1
73    37    39    1
74    39    40    1
75    40    41    1
76    40    42    1
77    40    52    1
78    42    51    1
79    42    43    1
80    43    44    2
81    43    96    1
82    44    45    1
83    45    51    ar
84    45    46    ar
85    46    47    1
86    46    48    ar
87    47    97    1
88    47    98    1
89    48    49    ar
90    49    50    ar
91    49    99    1
92    50    51    ar
93    52    53    1
94    52    54    1
95    52    55    1
96    54    100   1
97    55    56    1
98    55    57    1
99    57    58    1
100   58    59    ar
101   58    60    ar
102   58    61    ar
@<TRIPOS>SUBSTRUCTURE
1   ZINC000199630277 1     RESIDUE    1   A     ZIN   1
@<TRIPOS>MOLECULE
ZINC000195448505
95    97    1     0     0
SMALL
USER_CHARGES
@<TRIPOS>ATOM
1      C1     11.9356   -9.0189  -17.6706 C.3      1 ZINC000195448505   -0.1500
2      C2     10.9653   -7.8576  -17.8959 C.3      1 ZINC000195448505   -0.1000
3      C3     10.2506   -7.5428  -16.6070 C.2      1 ZINC000195448505   -0.1500
4      C4     10.2816   -6.3267  -16.1210 C.2      1 ZINC000195448505   -0.1500
5      C5      9.5670   -6.0119  -14.8321 C.3      1 ZINC000195448505   -0.1200
6      C6     10.5370   -5.3953  -13.8575 C.2      1 ZINC000195448505    0.3300
7      O7     11.6951   -5.2278  -14.1781 O.2      1 ZINC000195448505   -0.4400
8      S8     10.0049   -4.9310  -12.2980 S.3      1 ZINC000195448505   -0.1200
9      C9     11.5520   -4.2827  -11.6181 C.3      1 ZINC000195448505   -0.1200
10     C10    11.3152   -3.7939  -10.1877 C.3      1 ZINC000195448505    0.1400
11     N11    12.5674   -3.2691   -9.6374 N.am     1 ZINC000195448505   -0.7300
12     C12    12.5991   -2.7801   -8.3819 C.2      1 ZINC000195448505    0.5200
13     O13    11.5910   -2.7744   -7.7077 O.2      1 ZINC000195448505   -0.5300
14     C14    13.8872   -2.2402   -7.8158 C.3      1 ZINC000195448505   -0.1500
15     C15    13.6504   -1.7515   -6.3854 C.3      1 ZINC000195448505    0.1400
16     N16    14.9026   -1.2267   -5.8351 N.am     1 ZINC000195448505   -0.7400
17     C17    14.9343   -0.7376   -4.5796 C.2      1 ZINC000195448505    0.5000
18     O18    13.9092   -0.6476   -3.9378 O.2      1 ZINC000195448505   -0.5300
19     C19    16.2436   -0.3026   -3.9733 C.3      1 ZINC000195448505    0.1000
20     H20    16.3815   -0.7985   -3.0125 H        1 ZINC000195448505    0.1400
21     O21    17.3153   -0.6560   -4.8499 O.3      1 ZINC000195448505   -0.5500
22     C22    16.2316    1.2135   -3.7677 C.3      1 ZINC000195448505   -0.0900
23     C23    15.9027    1.9052   -5.0921 C.3      1 ZINC000195448505   -0.1500
24     C24    15.1730    1.5784   -2.7250 C.3      1 ZINC000195448505   -0.1400
25     C25    17.6072    1.6729   -3.2802 C.3      1 ZINC000195448505    0.1500
26     O26    17.5961    3.0889   -3.0882 O.3      1 ZINC000195448505   -0.7700
27     P27    18.8806    3.9147   -2.5782 P.3      1 ZINC000195448505    2.2900
28     O28    20.0806    3.6262   -3.5076 O.co2    1 ZINC000195448505   -1.1000
29     O29    19.2306    3.4840   -1.1364 O.co2    1 ZINC000195448505   -1.1100
30     O30    18.5498    5.4902   -2.6023 O.3      1 ZINC000195448505   -1.0900
31     P31    19.4535    6.8226   -2.6200 P.3      1 ZINC000195448505    2.2900
32     O32    20.5974    6.6555   -3.6449 O.co2    1 ZINC000195448505   -1.0900
33     O33    20.0513    7.0580   -1.2149 O.co2    1 ZINC000195448505   -1.1100
34     O34    18.5422    8.0837   -3.0337 O.3      1 ZINC000195448505   -0.7700
35     C35    19.0740    9.3940   -3.2397 C.3      1 ZINC000195448505    0.1400
36     C36    17.9416   10.3500   -3.6201 C.3      1 ZINC000195448505    0.0700
37     H37    17.3912    9.9629   -4.4776 H        1 ZINC000195448505    0.1000
38     O38    17.0523   10.5473   -2.4993 O.3      1 ZINC000195448505   -0.3500
39     C39    16.3589   11.7834   -2.7768 C.3      1 ZINC000195448505    0.2600
40     H40    15.5655   11.6180   -3.5057 H        1 ZINC000195448505    0.1200
41     N41    15.8068   12.3467   -1.5423 N.pl3    1 ZINC000195448505   -0.4500
42     C42    16.2539   12.1088   -0.2766 C.2      1 ZINC000195448505    0.2900
43     N43    15.5335   12.7712    0.5812 N.2      1 ZINC000195448505   -0.4800
44     C44    14.5811   13.4743   -0.0774 C.ar     1 ZINC000195448505   -0.1000
45     C45    13.5476   14.3430    0.3119 C.ar     1 ZINC000195448505    0.5000
46     N46    13.3382   14.6407    1.6471 N.pl3    1 ZINC000195448505   -0.8300
47     N47    12.7760   14.8724   -0.6320 N.ar     1 ZINC000195448505   -0.6000
48     C48    12.9687   14.5943   -1.9083 C.ar     1 ZINC000195448505    0.3400
49     N49    13.9234   13.7864   -2.3192 N.ar     1 ZINC000195448505   -0.5400
50     C50    14.7487   13.2150   -1.4483 C.ar     1 ZINC000195448505    0.2900
51     C51    17.4397   12.7195   -3.3616 C.3      1 ZINC000195448505    0.0600
52     H52    17.8687   13.3440   -2.5779 H        1 ZINC000195448505    0.0700
53     O53    16.8900   13.5307   -4.4017 O.3      1 ZINC000195448505   -0.5000
54     C54    18.5052   11.7541   -3.9320 C.3      1 ZINC000195448505    0.1500
55     H55    19.4614   11.9006   -3.4296 H        1 ZINC000195448505    0.0800
56     O56    18.6476   11.9417   -5.3415 O.3      1 ZINC000195448505   -0.7200
57     P57    20.0435   12.3430   -6.0360 P.3      1 ZINC000195448505    2.1200
58     O58    20.5997   13.6494   -5.3739 O.co2    1 ZINC000195448505   -1.1900
59     O59    21.0756   11.1801   -5.8441 O.co2    1 ZINC000195448505   -1.1700
60     O60    19.8136   12.5900   -7.5659 O.co2    1 ZINC000195448505   -1.1700
61     H61    12.6646   -8.7407  -16.9095 H        1 ZINC000195448505    0.0600
62     H62    11.3810   -9.8966  -17.3389 H        1 ZINC000195448505    0.0500
63     H63    12.4525   -9.2465  -18.6029 H        1 ZINC000195448505    0.0600
64     H64    11.5199   -6.9798  -18.2276 H        1 ZINC000195448505    0.0700
65     H65    10.2362   -8.1357  -18.6570 H        1 ZINC000195448505    0.0700
66     H66     9.7130   -8.3198  -16.0840 H        1 ZINC000195448505    0.1100
67     H67    10.8193   -5.5497  -16.6440 H        1 ZINC000195448505    0.1200
68     H68     8.7549   -5.3119  -15.0285 H        1 ZINC000195448505    0.1100
69     H69     9.1606   -6.9303  -14.4083 H        1 ZINC000195448505    0.1100
70     H70    12.3050   -5.0707  -11.6128 H        1 ZINC000195448505    0.1000
71     H71    11.8993   -3.4524  -12.2329 H        1 ZINC000195448505    0.1100
72     H72    10.5622   -3.0058  -10.1930 H        1 ZINC000195448505    0.0800
73     H73    10.9679   -4.6242   -9.5728 H        1 ZINC000195448505    0.0800
74     H74    13.3737   -3.2736  -10.1766 H        1 ZINC000195448505    0.4000
75     H75    14.6402   -3.0283   -7.8105 H        1 ZINC000195448505    0.1000
76     H76    14.2345   -1.4099   -8.4307 H        1 ZINC000195448505    0.1100
77     H77    12.8974   -0.9634   -6.3907 H        1 ZINC000195448505    0.0800
78     H78    13.3031   -2.5818   -5.7706 H        1 ZINC000195448505    0.0700
79     H79    15.7089   -1.2312   -6.3744 H        1 ZINC000195448505    0.4000
80     H80    17.2574   -0.2497   -5.7256 H        1 ZINC000195448505    0.3700
81     H81    14.9227    1.5779   -5.4394 H        1 ZINC000195448505    0.0400
82     H82    15.8942    2.9853   -4.9457 H        1 ZINC000195448505    0.0800
83     H83    16.6569    1.6452   -5.8349 H        1 ZINC000195448505    0.0500
84     H84    15.3415    0.9983   -1.8177 H        1 ZINC000195448505    0.0500
85     H85    15.2415    2.6416   -2.4945 H        1 ZINC000195448505    0.0700
86     H86    14.1819    1.3554   -3.1201 H        1 ZINC000195448505    0.0600
87     H87    17.8415    1.1801   -2.3366 H        1 ZINC000195448505    0.0500
88     H88    18.3614    1.4129   -4.0230 H        1 ZINC000195448505    0.0600
89     H89    19.5500    9.7412   -2.3226 H        1 ZINC000195448505    0.0600
90     H90    19.8104    9.3651   -4.0428 H        1 ZINC000195448505    0.1000
91     H91    17.0833   11.4651   -0.0232 H        1 ZINC000195448505    0.2300
92     H92    13.9082   14.2482    2.3267 H        1 ZINC000195448505    0.4200
93     H93    12.6213   15.2419    1.9033 H        1 ZINC000195448505    0.4000
94     H94    12.3185   15.0464   -2.6427 H        1 ZINC000195448505    0.2000
95     H95    16.1752   14.1131   -4.1101 H        1 ZINC000195448505    0.3500
@<TRIPOS>BOND
1     1     2     1
2     1     61    1
3     1     62    1
4     1     63    1
5     2     3     1
6     2     64    1
7     2     65    1
8     3     4     2
9     3     66    1
10    4     5     1
11    4     67    1
12    5     6     1
13    5     68    1
14    5     69    1
15    6     7     2
16    6     8     1
17    8     9     1
18    9     10    1
19    9     70    1
20    9     71    1
21    10    11    1
22    10    72    1
23    10    73    1
24    11    12    am
25    11    74    1
26    12    13    2
27    12    14    1
28    14    15    1
29    14    75    1
30    14    76    1
31    15    16    1
32    15    77    1
33    15    78    1
34    16    17    am
35    16    79    1
36    17    18    2
37    17    19    1
38    19    20    1
39    19    21    1
40    19    22    1
41    21    80    1
42    22    23    1
43    22    24    1
44    22    25    1
45    23    81    1
46    23    82    1
47    23    83    1
48    24    84    1
49    24    85    1
50    24    86    1
51    25    26    1
52    25    87    1
53    25    88    1
54    26    27    1
55    27    28    ar
56    27    29    ar
57    27    30    1
58    30    31    1
59    31    32    ar
60    31    33    ar
61    31    34    1
62    34    35    1
63    35    36    1
64    35    89    1
65    35    90    1
66    36    37    1
67    36    54    1
68    36    38    1
69    38    39    1
70    39    40    1
71    39    41    1
72    39    51    1
73    41    50    1
74    41    42    1
75    42    43    2
76    42    91    1
77    43    44    1
78    44    50    ar
79    44    45    ar
80    45    46    1
81    45    47    ar
82    46    92    1
83    46    93    1
84    47    48    ar
85    48    49    ar
86    48    94    1
87    49    50    ar
88    51    52    1
89    51    53    1
90    51    54    1
91    53    95    1
92    54    55    1
93    54    56    1
94    56    57    1
95    57    58    ar
96    57    59    ar
97    57    60    ar
@<TRIPOS>SUBSTRUCTURE
1   ZINC000195448505 1     RESIDUE    1   A     ZIN   1
@<TRIPOS>MOLECULE
ZINC000199604915
106   108   1     0     0
SMALL
USER_CHARGES
@<TRIPOS>ATOM
1      C1     -0.0413  -24.6917   -1.3304 C.3      1 ZINC000199604915   -0.1500
2      C2     -0.0646  -23.1710   -1.4971 C.3      1 ZINC000199604915   -0.1000
3      C3      0.2979  -22.8105   -2.9392 C.3      1 ZINC000199604915   -0.1500
4      C4     -1.4648  -22.6442   -1.1763 C.3      1 ZINC000199604915   -0.1200
5      C5     -1.4570  -21.1149   -1.2214 C.3      1 ZINC000199604915   -0.1200
6      C6     -2.8571  -20.5880   -0.9006 C.3      1 ZINC000199604915   -0.1000
7      C7     -2.8493  -19.0587   -0.9457 C.3      1 ZINC000199604915   -0.1100
8      H8     -2.4705  -18.7256   -1.9120 H        1 ZINC000199604915    0.1100
9      C9     -1.9492  -18.5202    0.1681 C.3      1 ZINC000199604915   -0.1500
10     C10    -4.2520  -18.5433   -0.7513 C.2      1 ZINC000199604915    0.3300
11     O11    -5.1681  -19.3227   -0.5923 O.2      1 ZINC000199604915   -0.4500
12     S12    -4.5528  -16.8579   -0.7549 S.3      1 ZINC000199604915   -0.1200
13     C13    -6.3430  -16.8576   -0.4879 C.3      1 ZINC000199604915   -0.1200
14     C14    -6.8533  -15.4156   -0.4533 C.3      1 ZINC000199604915    0.1400
15     N15    -8.3022  -15.4154   -0.2372 N.am     1 ZINC000199604915   -0.7300
16     C16    -8.9735  -14.2485   -0.1707 C.2      1 ZINC000199604915    0.5200
17     O17    -8.3779  -13.1987   -0.2896 O.2      1 ZINC000199604915   -0.5300
18     C18   -10.4640  -14.2483    0.0516 C.3      1 ZINC000199604915   -0.1500
19     C19   -10.9742  -12.8063    0.0863 C.3      1 ZINC000199604915    0.1400
20     N20   -12.4232  -12.8060    0.3023 N.am     1 ZINC000199604915   -0.7400
21     C21   -13.0944  -11.6392    0.3689 C.2      1 ZINC000199604915    0.5000
22     O22   -12.4887  -10.5888    0.3413 O.2      1 ZINC000199604915   -0.5200
23     C23   -14.5975  -11.6397    0.4776 C.3      1 ZINC000199604915    0.1000
24     H24   -15.0185  -11.0076   -0.3042 H        1 ZINC000199604915    0.1400
25     O25   -15.0856  -12.9741    0.3257 O.3      1 ZINC000199604915   -0.5500
26     C26   -15.0099  -11.0987    1.8481 C.3      1 ZINC000199604915   -0.0900
27     C27   -14.3096  -11.9027    2.9455 C.3      1 ZINC000199604915   -0.1400
28     C28   -14.6066   -9.6269    1.9579 C.3      1 ZINC000199604915   -0.1400
29     C29   -16.5258  -11.2257    2.0114 C.3      1 ZINC000199604915    0.1500
30     O30   -16.9110  -10.7205    3.2914 O.3      1 ZINC000199604915   -0.7700
31     P31   -18.4377  -10.6981    3.8021 P.3      1 ZINC000199604915    2.2900
32     O32   -19.3138   -9.9487    2.7736 O.co2    1 ZINC000199604915   -1.1000
33     O33   -18.9504  -12.1473    3.9566 O.co2    1 ZINC000199604915   -1.1100
34     O34   -18.5171   -9.9463    5.2236 O.3      1 ZINC000199604915   -1.0900
35     P35   -19.7211   -9.3310    6.0977 P.3      1 ZINC000199604915    2.2800
36     O36   -20.7263   -8.6222    5.1627 O.co2    1 ZINC000199604915   -1.1000
37     O37   -20.4388  -10.4684    6.8582 O.co2    1 ZINC000199604915   -1.1000
38     O38   -19.1296   -8.2693    7.1535 O.3      1 ZINC000199604915   -0.7800
39     C39   -19.9576   -7.4740    8.0044 C.3      1 ZINC000199604915    0.1500
40     C40   -19.0784   -6.5772    8.8783 C.3      1 ZINC000199604915    0.0700
41     H41   -18.3456   -7.1762    9.4189 H        1 ZINC000199604915    0.0800
42     O42   -18.4154   -5.5813    8.0694 O.3      1 ZINC000199604915   -0.3500
43     C43   -18.0424   -4.5314    8.9884 C.3      1 ZINC000199604915    0.2600
44     H44   -17.1508   -4.8154    9.5474 H        1 ZINC000199604915    0.1100
45     N45   -17.8121   -3.2784    8.2650 N.pl3    1 ZINC000199604915   -0.4500
46     C46   -18.3316   -2.9409    7.0507 C.2      1 ZINC000199604915    0.3100
47     N47   -17.9204   -1.7555    6.7052 N.2      1 ZINC000199604915   -0.4900
48     C48   -17.1131   -1.2584    7.6729 C.ar     1 ZINC000199604915   -0.1000
49     C49   -16.3993   -0.0605    7.8454 C.ar     1 ZINC000199604915    0.5000
50     N50   -16.4395    0.9327    6.8825 N.pl3    1 ZINC000199604915   -0.8300
51     N51   -15.6850    0.0969    8.9551 N.ar     1 ZINC000199604915   -0.6000
52     C52   -15.6411   -0.8451    9.8794 C.ar     1 ZINC000199604915    0.3400
53     N53   -16.2928   -1.9827    9.7605 N.ar     1 ZINC000199604915   -0.5400
54     C54   -17.0387   -2.2271    8.6881 C.ar     1 ZINC000199604915    0.2900
55     C55   -19.2516   -4.3915    9.9395 C.3      1 ZINC000199604915    0.0600
56     H56   -18.9161   -4.1875   10.9564 H        1 ZINC000199604915    0.0800
57     O57   -20.1284   -3.3581    9.4862 O.3      1 ZINC000199604915   -0.4900
58     C58   -19.9486   -5.7705    9.8675 C.3      1 ZINC000199604915    0.1500
59     H59   -19.9572   -6.2458   10.8483 H        1 ZINC000199604915    0.0800
60     O60   -21.2802   -5.6330    9.3674 O.3      1 ZINC000199604915   -0.7100
61     P61   -22.5798   -6.1042   10.1927 P.3      1 ZINC000199604915    2.1200
62     O62   -22.4275   -7.6119   10.5905 O.co2    1 ZINC000199604915   -1.1800
63     O63   -22.7197   -5.2340   11.4879 O.co2    1 ZINC000199604915   -1.1900
64     O64   -23.8567   -5.9253    9.3029 O.co2    1 ZINC000199604915   -1.1600
65     H65     0.9562  -25.0671   -1.5589 H        1 ZINC000199604915    0.0500
66     H66    -0.2996  -24.9486   -0.3031 H        1 ZINC000199604915    0.0500
67     H67    -0.7639  -25.1429   -2.0104 H        1 ZINC000199604915    0.0500
68     H68     0.6580  -22.7198   -0.8172 H        1 ZINC000199604915    0.0700
69     H69     0.2813  -21.7271   -3.0580 H        1 ZINC000199604915    0.0600
70     H70     1.2954  -23.1858   -3.1677 H        1 ZINC000199604915    0.0500
71     H71    -0.4247  -23.2616   -3.6191 H        1 ZINC000199604915    0.0500
72     H72    -2.1737  -23.0257   -1.9111 H        1 ZINC000199604915    0.0600
73     H73    -1.7589  -22.9768   -0.1808 H        1 ZINC000199604915    0.0600
74     H74    -0.7480  -20.7333   -0.4866 H        1 ZINC000199604915    0.0700
75     H75    -1.1629  -20.7822   -2.2169 H        1 ZINC000199604915    0.0700
76     H76    -3.5661  -20.9696   -1.6354 H        1 ZINC000199604915    0.0700
77     H77    -3.1512  -20.9207    0.0949 H        1 ZINC000199604915    0.0700
78     H78    -2.3280  -18.8533    1.1344 H        1 ZINC000199604915    0.0600
79     H79    -0.9346  -18.8930    0.0276 H        1 ZINC000199604915    0.0700
80     H80    -1.9436  -17.4307    0.1360 H        1 ZINC000199604915    0.0700
81     H81    -6.8315  -17.3964   -1.2998 H        1 ZINC000199604915    0.1000
82     H82    -6.5691  -17.3459    0.4600 H        1 ZINC000199604915    0.1000
83     H83    -6.3648  -14.8767    0.3586 H        1 ZINC000199604915    0.0800
84     H84    -6.6272  -14.9273   -1.4012 H        1 ZINC000199604915    0.0800
85     H85    -8.7786  -16.2550   -0.1421 H        1 ZINC000199604915    0.4000
86     H86   -10.9525  -14.7871   -0.7602 H        1 ZINC000199604915    0.1000
87     H87   -10.6901  -14.7365    0.9995 H        1 ZINC000199604915    0.1100
88     H88   -10.4857  -12.2674    0.8981 H        1 ZINC000199604915    0.0800
89     H89   -10.7481  -12.3180   -0.8617 H        1 ZINC000199604915    0.0700
90     H90   -12.8995  -13.6456    0.3975 H        1 ZINC000199604915    0.4000
91     H91   -14.7513  -13.5931    0.9891 H        1 ZINC000199604915    0.3700
92     H92   -13.2296  -11.8122    2.8291 H        1 ZINC000199604915    0.0400
93     H93   -14.6034  -11.5173    3.9218 H        1 ZINC000199604915    0.0800
94     H94   -14.5969  -12.9512    2.8673 H        1 ZINC000199604915    0.0500
95     H95   -15.0129   -9.0747    1.1105 H        1 ZINC000199604915    0.0500
96     H96   -14.9999   -9.2106    2.8853 H        1 ZINC000199604915    0.0800
97     H97   -13.5195   -9.5470    1.9561 H        1 ZINC000199604915    0.0600
98     H98   -17.0247  -10.6530    1.2296 H        1 ZINC000199604915    0.0500
99     H99   -16.8131  -12.2742    1.9332 H        1 ZINC000199604915    0.0500
100    H100  -20.6160   -6.8548    7.3952 H        1 ZINC000199604915    0.0800
101    H101  -20.5571   -8.1256    8.6401 H        1 ZINC000199604915    0.0900
102    H102  -18.9873   -3.5653    6.4620 H        1 ZINC000199604915    0.2300
103    H103  -16.9648    0.8062    6.0769 H        1 ZINC000199604915    0.4200
104    H104  -15.9424    1.7553    7.0131 H        1 ZINC000199604915    0.4000
105    H105  -15.0481   -0.6761   10.7661 H        1 ZINC000199604915    0.2000
106    H106  -19.7211   -2.4816    9.4567 H        1 ZINC000199604915    0.3400
@<TRIPOS>BOND
1     1     2     1
2     1     65    1
3     1     66    1
4     1     67    1
5     2     3     1
6     2     4     1
7     2     68    1
8     3     69    1
9     3     70    1
10    3     71    1
11    4     5     1
12    4     72    1
13    4     73    1
14    5     6     1
15    5     74    1
16    5     75    1
17    6     7     1
18    6     76    1
19    6     77    1
20    7     8     1
21    7     9     1
22    7     10    1
23    9     78    1
24    9     79    1
25    9     80    1
26    10    11    2
27    10    12    1
28    12    13    1
29    13    14    1
30    13    81    1
31    13    82    1
32    14    15    1
33    14    83    1
34    14    84    1
35    15    16    am
36    15    85    1
37    16    17    2
38    16    18    1
39    18    19    1
40    18    86    1
41    18    87    1
42    19    20    1
43    19    88    1
44    19    89    1
45    20    21    am
46    20    90    1
47    21    22    2
48    21    23    1
49    23    24    1
50    23    25    1
51    23    26    1
52    25    91    1
53    26    27    1
54    26    28    1
55    26    29    1
56    27    92    1
57    27    93    1
58    27    94    1
59    28    95    1
60    28    96    1
61    28    97    1
62    29    30    1
63    29    98    1
64    29    99    1
65    30    31    1
66    31    32    ar
67    31    33    ar
68    31    34    1
69    34    35    1
70    35    36    ar
71    35    37    ar
72    35    38    1
73    38    39    1
74    39    40    1
75    39    100   1
76    39    101   1
77    40    41    1
78    40    58    1
79    40    42    1
80    42    43    1
81    43    44    1
82    43    45    1
83    43    55    1
84    45    54    1
85    45    46    1
86    46    47    2
87    46    102   1
88    47    48    1
89    48    54    ar
90    48    49    ar
91    49    50    1
92    49    51    ar
93    50    103   1
94    50    104   1
95    51    52    ar
96    52    53    ar
97    52    105   1
98    53    54    ar
99    55    56    1
100   55    57    1
101   55    58    1
102   57    106   1
103   58    59    1
104   58    60    1
105   60    61    1
106   61    62    ar
107   61    63    ar
108   61    64    ar
@<TRIPOS>SUBSTRUCTURE
1   ZINC000199604915 1     RESIDUE    1   A     ZIN   1
@<TRIPOS>MOLECULE
ZINC000199628092
100   102   1     0     0
SMALL
USER_CHARGES
@<TRIPOS>ATOM
1      C1     10.6992   -6.5048   18.9735 C.3      1 ZINC000199628092   -0.1500
2      C2     10.0165   -7.6435   18.2131 C.3      1 ZINC000199628092   -0.1300
3      C3      9.4399   -7.1070   16.9013 C.3      1 ZINC000199628092   -0.1200
4      C4      8.7572   -8.2457   16.1409 C.3      1 ZINC000199628092   -0.1100
5      C5      8.1806   -7.7093   14.8291 C.3      1 ZINC000199628092   -0.1100
6      H6      8.9694   -7.2178   14.2596 H        1 ZINC000199628092    0.1100
7      C7      7.0693   -6.7029   15.1343 C.3      1 ZINC000199628092   -0.1500
8      C8      7.6167   -8.8515   14.0239 C.2      1 ZINC000199628092    0.3300
9      O9      7.6708   -9.9837   14.4568 O.2      1 ZINC000199628092   -0.4500
10     S10     6.8999   -8.5517   12.4984 S.3      1 ZINC000199628092   -0.1200
11     C11     6.4291  -10.2370   12.0357 C.3      1 ZINC000199628092   -0.1200
12     C12     5.7493  -10.2185   10.6651 C.3      1 ZINC000199628092    0.1400
13     N13     5.3682  -11.5825   10.2905 N.am     1 ZINC000199628092   -0.7300
14     C14     4.7502  -11.8108    9.1148 C.2      1 ZINC000199628092    0.5200
15     O15     4.5096  -10.8869    8.3668 O.2      1 ZINC000199628092   -0.5300
16     C16     4.3582  -13.2139    8.7295 C.3      1 ZINC000199628092   -0.1500
17     C17     3.6784  -13.1954    7.3589 C.3      1 ZINC000199628092    0.1400
18     N18     3.2973  -14.5595    6.9843 N.am     1 ZINC000199628092   -0.7400
19     C19     2.6793  -14.7877    5.8086 C.2      1 ZINC000199628092    0.5000
20     O20     2.3570  -13.8562    5.1020 O.2      1 ZINC000199628092   -0.5200
21     C21     2.3889  -16.2005    5.3718 C.3      1 ZINC000199628092    0.1000
22     H22     2.7874  -16.3602    4.3699 H        1 ZINC000199628092    0.1400
23     O23     3.0037  -17.1160    6.2805 O.3      1 ZINC000199628092   -0.5500
24     C24     0.8763  -16.4304    5.3616 C.3      1 ZINC000199628092   -0.0900
25     C25     0.2971  -16.0748    6.7324 C.3      1 ZINC000199628092   -0.1400
26     C26     0.2332  -15.5461    4.2913 C.3      1 ZINC000199628092   -0.1400
27     C27     0.5858  -17.9000    5.0509 C.3      1 ZINC000199628092    0.1500
28     O28    -0.8269  -18.1147    5.0414 O.3      1 ZINC000199628092   -0.7700
29     P29    -1.4937  -19.5505    4.7479 P.3      1 ZINC000199628092    2.2900
30     O30    -0.9774  -20.0914    3.3959 O.co2    1 ZINC000199628092   -1.1000
31     O31    -1.1131  -20.5353    5.8758 O.co2    1 ZINC000199628092   -1.1100
32     O32    -3.0952  -19.3962    4.6878 O.3      1 ZINC000199628092   -1.0900
33     P33    -4.2895  -20.3323    4.1499 P.3      1 ZINC000199628092    2.2900
34     O34    -3.8581  -21.0104    2.8304 O.co2    1 ZINC000199628092   -1.1000
35     O35    -4.6101  -21.4150    5.2044 O.co2    1 ZINC000199628092   -1.1000
36     O36    -5.5995  -19.4336    3.8881 O.3      1 ZINC000199628092   -0.7700
37     C37    -6.7975  -19.9543    3.3088 C.3      1 ZINC000199628092    0.1400
38     C38    -7.8391  -18.8387    3.2022 C.3      1 ZINC000199628092    0.0700
39     H39    -7.9927  -18.3698    4.1741 H        1 ZINC000199628092    0.1000
40     O40    -7.4246  -17.8551    2.2293 O.3      1 ZINC000199628092   -0.3500
41     C41    -8.6337  -17.1626    1.8493 C.3      1 ZINC000199628092    0.2600
42     H42    -8.9110  -16.4363    2.6133 H        1 ZINC000199628092    0.1200
43     N43    -8.4558  -16.4981    0.5559 N.pl3    1 ZINC000199628092   -0.4500
44     C44    -7.5591  -16.8426   -0.4114 C.2      1 ZINC000199628092    0.2900
45     N45    -7.6729  -16.0399   -1.4294 N.2      1 ZINC000199628092   -0.4800
46     C46    -8.6471  -15.1319   -1.1809 C.ar     1 ZINC000199628092   -0.1000
47     C47    -9.1965  -14.0522   -1.8928 C.ar     1 ZINC000199628092    0.5000
48     N48    -8.7312  -13.7260   -3.1547 N.pl3    1 ZINC000199628092   -0.8300
49     N49   -10.1737  -13.3517   -1.3263 N.ar     1 ZINC000199628092   -0.6000
50     C50   -10.6242  -13.6560   -0.1230 C.ar     1 ZINC000199628092    0.3400
51     N51   -10.1398  -14.6577    0.5805 N.ar     1 ZINC000199628092   -0.5400
52     C52    -9.1652  -15.4186    0.0935 C.ar     1 ZINC000199628092    0.2900
53     C53    -9.7062  -18.2695    1.7450 C.3      1 ZINC000199628092    0.0600
54     H54    -9.7956  -18.6189    0.7164 H        1 ZINC000199628092    0.0700
55     O55   -10.9661  -17.7924    2.2216 O.3      1 ZINC000199628092   -0.5000
56     C56    -9.1724  -19.3981    2.6582 C.3      1 ZINC000199628092    0.1500
57     H57    -8.9970  -20.3058    2.0809 H        1 ZINC000199628092    0.0800
58     O58   -10.0879  -19.6539    3.7252 O.3      1 ZINC000199628092   -0.7200
59     P59   -10.7611  -21.0947    3.9765 P.3      1 ZINC000199628092    2.1200
60     O60   -11.4861  -21.5672    2.6705 O.co2    1 ZINC000199628092   -1.1900
61     O61    -9.6503  -22.1303    4.3610 O.co2    1 ZINC000199628092   -1.1700
62     O62   -11.8022  -20.9884    5.1424 O.co2    1 ZINC000199628092   -1.1700
63     H63     9.9701   -5.7238   19.1896 H        1 ZINC000199628092    0.0500
64     H64    11.1099   -6.8869   19.9080 H        1 ZINC000199628092    0.0500
65     H65    11.5037   -6.0924   18.3647 H        1 ZINC000199628092    0.0500
66     H66    10.7455   -8.4244   17.9970 H        1 ZINC000199628092    0.0600
67     H67     9.2119   -8.0559   18.8219 H        1 ZINC000199628092    0.0600
68     H68     8.7108   -6.3260   17.1174 H        1 ZINC000199628092    0.0700
69     H69    10.2445   -6.6946   16.2925 H        1 ZINC000199628092    0.0600
70     H70     9.4863   -9.0267   15.9248 H        1 ZINC000199628092    0.0700
71     H71     7.9526   -8.6581   16.7497 H        1 ZINC000199628092    0.0700
72     H72     6.2805   -7.1944   15.7039 H        1 ZINC000199628092    0.0600
73     H73     7.4771   -5.8768   15.7167 H        1 ZINC000199628092    0.0700
74     H74     6.6585   -6.3208   14.1998 H        1 ZINC000199628092    0.0700
75     H75     7.3197  -10.8638   11.9910 H        1 ZINC000199628092    0.1000
76     H76     5.7392  -10.6383   12.7780 H        1 ZINC000199628092    0.1000
77     H77     4.8587   -9.5917   10.7097 H        1 ZINC000199628092    0.0800
78     H78     6.4392   -9.8171    9.9227 H        1 ZINC000199628092    0.0800
79     H79     5.5607  -12.3214   10.8888 H        1 ZINC000199628092    0.4000
80     H80     5.2489  -13.8407    8.6848 H        1 ZINC000199628092    0.1000
81     H81     3.6683  -13.6153    9.4718 H        1 ZINC000199628092    0.1100
82     H82     2.7878  -12.5686    7.4035 H        1 ZINC000199628092    0.0800
83     H83     4.3683  -12.7941    6.6165 H        1 ZINC000199628092    0.0700
84     H84     3.4898  -15.2984    7.5826 H        1 ZINC000199628092    0.4000
85     H85     2.6959  -17.0306    7.1933 H        1 ZINC000199628092    0.3700
86     H86     0.5041  -15.0278    6.9537 H        1 ZINC000199628092    0.0400
87     H87    -0.7805  -16.2386    6.7251 H        1 ZINC000199628092    0.0800
88     H88     0.7553  -16.7048    7.4949 H        1 ZINC000199628092    0.0500
89     H89     0.7253  -15.7182    3.3341 H        1 ZINC000199628092    0.0500
90     H90    -0.8253  -15.7915    4.2051 H        1 ZINC000199628092    0.0800
91     H91     0.3416  -14.4985    4.5723 H        1 ZINC000199628092    0.0600
92     H92     0.9984  -18.1534    4.0743 H        1 ZINC000199628092    0.0500
93     H93     1.0439  -18.5300    5.8133 H        1 ZINC000199628092    0.0600
94     H94    -6.5804  -20.3450    2.3147 H        1 ZINC000199628092    0.0600
95     H95    -7.1864  -20.7557    3.9371 H        1 ZINC000199628092    0.1000
96     H96    -6.8573  -17.6606   -0.3427 H        1 ZINC000199628092    0.2300
97     H97    -8.0177  -14.2451   -3.5577 H        1 ZINC000199628092    0.4200
98     H98    -9.1186  -12.9784   -3.6362 H        1 ZINC000199628092    0.4000
99     H99   -11.4196  -13.0604    0.3001 H        1 ZINC000199628092    0.2000
100    H100  -11.3185  -17.0442    1.7205 H        1 ZINC000199628092    0.3500
@<TRIPOS>BOND
1     1     2     1
2     1     63    1
3     1     64    1
4     1     65    1
5     2     3     1
6     2     66    1
7     2     67    1
8     3     4     1
9     3     68    1
10    3     69    1
11    4     5     1
12    4     70    1
13    4     71    1
14    5     6     1
15    5     7     1
16    5     8     1
17    7     72    1
18    7     73    1
19    7     74    1
20    8     9     2
21    8     10    1
22    10    11    1
23    11    12    1
24    11    75    1
25    11    76    1
26    12    13    1
27    12    77    1
28    12    78    1
29    13    14    am
30    13    79    1
31    14    15    2
32    14    16    1
33    16    17    1
34    16    80    1
35    16    81    1
36    17    18    1
37    17    82    1
38    17    83    1
39    18    19    am
40    18    84    1
41    19    20    2
42    19    21    1
43    21    22    1
44    21    23    1
45    21    24    1
46    23    85    1
47    24    25    1
48    24    26    1
49    24    27    1
50    25    86    1
51    25    87    1
52    25    88    1
53    26    89    1
54    26    90    1
55    26    91    1
56    27    28    1
57    27    92    1
58    27    93    1
59    28    29    1
60    29    30    ar
61    29    31    ar
62    29    32    1
63    32    33    1
64    33    34    ar
65    33    35    ar
66    33    36    1
67    36    37    1
68    37    38    1
69    37    94    1
70    37    95    1
71    38    39    1
72    38    56    1
73    38    40    1
74    40    41    1
75    41    42    1
76    41    43    1
77    41    53    1
78    43    52    1
79    43    44    1
80    44    45    2
81    44    96    1
82    45    46    1
83    46    52    ar
84    46    47    ar
85    47    48    1
86    47    49    ar
87    48    97    1
88    48    98    1
89    49    50    ar
90    50    51    ar
91    50    99    1
92    51    52    ar
93    53    54    1
94    53    55    1
95    53    56    1
96    55    100   1
97    56    57    1
98    56    58    1
99    58    59    1
100   59    60    ar
101   59    61    ar
102   59    62    ar
@<TRIPOS>SUBSTRUCTURE
1   ZINC000199628092 1     RESIDUE    1   A     ZIN   1
@<TRIPOS>MOLECULE
ZINC000008551087
80    82    1     0     0
SMALL
USER_CHARGES
@<TRIPOS>ATOM
1      C1     -0.0985    1.3509    0.2822 C.3      1 ZINC000008551087   -0.1500
2      C2     -0.1133   -0.1556    0.0155 C.3      1 ZINC000008551087   -0.1000
3      C3      0.5901   -0.8836    1.1627 C.3      1 ZINC000008551087   -0.1300
4      C4     -1.5606   -0.6414   -0.0855 C.3      1 ZINC000008551087    0.1400
5      O5     -2.2415   -0.3681    1.1407 O.3      1 ZINC000008551087   -0.7600
6      P6     -3.7866   -0.7464    1.3890 P.3      1 ZINC000008551087    2.3000
7      O7     -3.9980   -2.2527    1.1177 O.co2    1 ZINC000008551087   -1.1100
8      O8     -4.6786    0.0789    0.4349 O.co2    1 ZINC000008551087   -1.1100
9      O9     -4.1819   -0.4152    2.9141 O.3      1 ZINC000008551087   -1.0900
10     P10    -5.3629   -0.9016    3.8943 P.3      1 ZINC000008551087    2.3000
11     O11    -6.6859   -0.9919    3.1013 O.co2    1 ZINC000008551087   -1.1100
12     O12    -5.0131   -2.2910    4.4723 O.co2    1 ZINC000008551087   -1.1000
13     O13    -5.5300    0.1541    5.0984 O.3      1 ZINC000008551087   -0.7700
14     C14    -6.5651    0.0588    6.0789 C.3      1 ZINC000008551087    0.1400
15     C15    -6.4344    1.2150    7.0725 C.3      1 ZINC000008551087    0.0700
16     H16    -5.4312    1.2370    7.4981 H        1 ZINC000008551087    0.1000
17     O17    -6.7333    2.4707    6.4247 O.3      1 ZINC000008551087   -0.3500
18     C18    -7.0668    3.3811    7.4952 C.3      1 ZINC000008551087    0.2600
19     H19    -6.1613    3.7360    7.9874 H        1 ZINC000008551087    0.1200
20     N20    -7.8427    4.5119    6.9799 N.pl3    1 ZINC000008551087   -0.4500
21     C21    -8.5963    4.5222    5.8440 C.2      1 ZINC000008551087    0.2900
22     N22    -9.1493    5.6899    5.6879 N.2      1 ZINC000008551087   -0.4800
23     C23    -8.7868    6.5009    6.7106 C.ar     1 ZINC000008551087   -0.1000
24     C24    -9.0665    7.8320    7.0631 C.ar     1 ZINC000008551087    0.5000
25     N25    -9.8900    8.6154    6.2737 N.pl3    1 ZINC000008551087   -0.8300
26     N26    -8.5221    8.3210    8.1726 N.ar     1 ZINC000008551087   -0.6000
27     C27    -7.7355    7.5807    8.9322 C.ar     1 ZINC000008551087    0.3400
28     N28    -7.4455    6.3300    8.6413 N.ar     1 ZINC000008551087   -0.5400
29     C29    -7.9487    5.7530    7.5551 C.ar     1 ZINC000008551087    0.2900
30     C30    -7.9183    2.5435    8.4748 C.3      1 ZINC000008551087    0.0600
31     H31    -8.9803    2.6784    8.2693 H        1 ZINC000008551087    0.0700
32     O32    -7.6220    2.8998    9.8266 O.3      1 ZINC000008551087   -0.5000
33     C33    -7.4908    1.0841    8.1919 C.3      1 ZINC000008551087    0.1500
34     H34    -8.3415    0.4972    7.8457 H        1 ZINC000008551087    0.0800
35     O35    -6.9198    0.4940    9.3615 O.3      1 ZINC000008551087   -0.7200
36     P36    -7.5094   -0.8371   10.0491 P.3      1 ZINC000008551087    2.1200
37     O37    -9.0274   -0.6280   10.3751 O.co2    1 ZINC000008551087   -1.1900
38     O38    -7.3479   -2.0474    9.0674 O.co2    1 ZINC000008551087   -1.1700
39     O39    -6.7264   -1.1312   11.3738 O.co2    1 ZINC000008551087   -1.1700
40     C40     0.6157   -0.4483   -1.2974 C.3      1 ZINC000008551087    0.1100
41     H41     1.6142   -0.0124   -1.2635 H        1 ZINC000008551087    0.1200
42     O42     0.7190   -1.8618   -1.4801 O.3      1 ZINC000008551087   -0.5400
43     C43    -0.1555    0.1515   -2.4448 C.2      1 ZINC000008551087    0.4900
44     O44    -0.7013   -0.5707   -3.2519 O.2      1 ZINC000008551087   -0.5200
45     N45    -0.2388    1.4905   -2.5740 N.am     1 ZINC000008551087   -0.7300
46     C46    -1.0675    2.0742   -3.6317 C.3      1 ZINC000008551087    0.1300
47     C47    -0.9878    3.6004   -3.5583 C.3      1 ZINC000008551087   -0.1500
48     C48    -1.8403    4.2008   -4.6463 C.2      1 ZINC000008551087    0.5200
49     O49    -2.4515    3.4791   -5.4056 O.2      1 ZINC000008551087   -0.5200
50     N50    -1.9236    5.5398   -4.7755 N.am     1 ZINC000008551087   -0.7300
51     C51    -2.7523    6.1235   -5.8332 C.3      1 ZINC000008551087    0.1300
52     C52    -2.6726    7.6497   -5.7598 C.3      1 ZINC000008551087   -0.0900
53     S53    -3.6988    8.3724   -7.0694 S.3      1 ZINC000008551087   -0.2200
54     H54     0.9273    1.7171    0.2410 H        1 ZINC000008551087    0.0500
55     H55    -0.6966    1.8597   -0.4738 H        1 ZINC000008551087    0.0600
56     H56    -0.5157    1.5492    1.2695 H        1 ZINC000008551087    0.0800
57     H57     0.0362   -0.7245    2.0879 H        1 ZINC000008551087    0.0800
58     H58     0.6331   -1.9505    0.9439 H        1 ZINC000008551087    0.0600
59     H59     1.6022   -0.4943    1.2737 H        1 ZINC000008551087    0.0500
60     H60    -2.0617   -0.1228   -0.9028 H        1 ZINC000008551087    0.0500
61     H61    -1.5712   -1.7147   -0.2755 H        1 ZINC000008551087    0.0500
62     H62    -7.5368    0.1100    5.5877 H        1 ZINC000008551087    0.0600
63     H63    -6.4761   -0.8887    6.6103 H        1 ZINC000008551087    0.1000
64     H64    -8.7163    3.6850    5.1724 H        1 ZINC000008551087    0.2300
65     H65   -10.2816    8.2470    5.4664 H        1 ZINC000008551087    0.4200
66     H66   -10.0755    9.5330    6.5277 H        1 ZINC000008551087    0.4000
67     H67    -7.3140    8.0178    9.8253 H        1 ZINC000008551087    0.2000
68     H68    -7.8153    3.8226   10.0415 H        1 ZINC000008551087    0.3500
69     H69    -0.1335   -2.3166   -1.5195 H        1 ZINC000008551087    0.3900
70     H70     0.2500    2.0677   -1.9666 H        1 ZINC000008551087    0.4000
71     H71    -0.7064    1.7378   -4.6035 H        1 ZINC000008551087    0.0700
72     H72    -2.1021    1.7576   -3.4990 H        1 ZINC000008551087    0.0800
73     H73    -1.3490    3.9367   -2.5864 H        1 ZINC000008551087    0.1100
74     H74     0.0467    3.9170   -3.6909 H        1 ZINC000008551087    0.1000
75     H75    -1.4348    6.1170   -4.1681 H        1 ZINC000008551087    0.4000
76     H76    -2.3912    5.7871   -6.8050 H        1 ZINC000008551087    0.0800
77     H77    -3.7869    5.8069   -5.7005 H        1 ZINC000008551087    0.0800
78     H78    -3.0338    7.9860   -4.7879 H        1 ZINC000008551087    0.0900
79     H79    -1.6381    7.9663   -5.8924 H        1 ZINC000008551087    0.0900
80     H80    -3.5354    9.6949   -6.8866 H        1 ZINC000008551087    0.0900
@<TRIPOS>BOND
1     1     2     1
2     1     54    1
3     1     55    1
4     1     56    1
5     2     3     1
6     2     4     1
7     2     40    1
8     3     57    1
9     3     58    1
10    3     59    1
11    4     5     1
12    4     60    1
13    4     61    1
14    5     6     1
15    6     7     ar
16    6     8     ar
17    6     9     1
18    9     10    1
19    10    11    ar
20    10    12    ar
21    10    13    1
22    13    14    1
23    14    15    1
24    14    62    1
25    14    63    1
26    15    16    1
27    15    33    1
28    15    17    1
29    17    18    1
30    18    19    1
31    18    20    1
32    18    30    1
33    20    29    1
34    20    21    1
35    21    22    2
36    21    64    1
37    22    23    1
38    23    29    ar
39    23    24    ar
40    24    25    1
41    24    26    ar
42    25    65    1
43    25    66    1
44    26    27    ar
45    27    28    ar
46    27    67    1
47    28    29    ar
48    30    31    1
49    30    32    1
50    30    33    1
51    32    68    1
52    33    34    1
53    33    35    1
54    35    36    1
55    36    37    ar
56    36    38    ar
57    36    39    ar
58    40    41    1
59    40    42    1
60    40    43    1
61    42    69    1
62    43    44    2
63    43    45    am
64    45    46    1
65    45    70    1
66    46    47    1
67    46    71    1
68    46    72    1
69    47    48    1
70    47    73    1
71    47    74    1
72    48    49    2
73    48    50    am
74    50    51    1
75    50    75    1
76    51    52    1
77    51    76    1
78    51    77    1
79    52    53    1
80    52    78    1
81    52    79    1
82    53    80    1
@<TRIPOS>SUBSTRUCTURE
1   ZINC000008551087 1     RESIDUE    1   A     ZIN   1
@<TRIPOS>MOLECULE
ZINC000008551759
97    99    1     0     0
SMALL
USER_CHARGES
@<TRIPOS>ATOM
1      C1     10.2765   -6.5385   19.1773 C.3      1 ZINC000008551759   -0.1500
2      C2      9.8107   -7.6991   18.2958 C.3      1 ZINC000008551759   -0.1300
3      C3      9.2335   -7.1482   16.9904 C.3      1 ZINC000008551759   -0.1200
4      C4      8.7676   -8.3087   16.1089 C.3      1 ZINC000008551759   -0.1100
5      C5      8.1904   -7.7578   14.8034 C.3      1 ZINC000008551759   -0.1500
6      C6      7.7316   -8.9009   13.9352 C.2      1 ZINC000008551759    0.3300
7      O7      7.8542  -10.0441   14.3226 O.2      1 ZINC000008551759   -0.4500
8      S8      7.0373   -8.5864   12.4022 S.3      1 ZINC000008551759   -0.1200
9      C9      6.7005  -10.2790   11.8564 C.3      1 ZINC000008551759   -0.1200
10     C10     6.0589  -10.2489   10.4678 C.3      1 ZINC000008551759    0.1400
11     N11     5.7864  -11.6189   10.0260 N.am     1 ZINC000008551759   -0.7300
12     C12     5.2186  -11.8388    8.8237 C.2      1 ZINC000008551759    0.5200
13     O13     4.9334  -10.9026    8.1074 O.2      1 ZINC000008551759   -0.5300
14     C14     4.9382  -13.2481    8.3692 C.3      1 ZINC000008551759   -0.1500
15     C15     4.2966  -13.2180    6.9806 C.3      1 ZINC000008551759    0.1400
16     N16     4.0241  -14.5880    6.5389 N.am     1 ZINC000008551759   -0.7400
17     C17     3.4563  -14.8079    5.3365 C.2      1 ZINC000008551759    0.5000
18     O18     3.0879  -13.8716    4.6594 O.2      1 ZINC000008551759   -0.5300
19     C19     3.2792  -16.2174    4.8333 C.3      1 ZINC000008551759    0.1000
20     H20     3.7154  -16.3054    3.8383 H        1 ZINC000008551759    0.1400
21     O21     3.9326  -17.1260    5.7219 O.3      1 ZINC000008551759   -0.5500
22     C22     1.7877  -16.5519    4.7678 C.3      1 ZINC000008551759   -0.0900
23     C23     1.1474  -16.2973    6.1338 C.3      1 ZINC000008551759   -0.1400
24     C24     1.1129  -15.6694    3.7157 C.3      1 ZINC000008551759   -0.1400
25     C25     1.6113  -18.0235    4.3882 C.3      1 ZINC000008551759    0.1500
26     O26     0.2182  -18.3360    4.3270 O.3      1 ZINC000008551759   -0.7700
27     P27    -0.3364  -19.8009    3.9545 P.3      1 ZINC000008551759    2.3000
28     O28     0.2540  -20.2454    2.5978 O.co2    1 ZINC000008551759   -1.1100
29     O29     0.0824  -20.8044    5.0520 O.co2    1 ZINC000008551759   -1.1100
30     O30    -1.9425  -19.7566    3.8523 O.3      1 ZINC000008551759   -1.0900
31     P31    -3.0520  -20.7500    3.2403 P.3      1 ZINC000008551759    2.2900
32     O32    -2.7349  -22.2010    3.6658 O.co2    1 ZINC000008551759   -1.1000
33     O33    -3.0378  -20.6506    1.6986 O.co2    1 ZINC000008551759   -1.1100
34     O34    -4.5066  -20.3347    3.7915 O.3      1 ZINC000008551759   -0.7700
35     C35    -5.6884  -21.0883    3.5136 C.3      1 ZINC000008551759    0.1400
36     C36    -6.8894  -20.4197    4.1854 C.3      1 ZINC000008551759    0.0700
37     H37    -6.7000  -20.2825    5.2501 H        1 ZINC000008551759    0.1000
38     O38    -7.1744  -19.1505    3.5579 O.3      1 ZINC000008551759   -0.3500
39     C39    -8.5474  -18.8580    3.8971 C.3      1 ZINC000008551759    0.2600
40     H40    -8.6142  -18.4816    4.9179 H        1 ZINC000008551759    0.1200
41     N41    -9.1085  -17.8839    2.9577 N.pl3    1 ZINC000008551759   -0.4500
42     C42    -8.6767  -17.6482    1.6864 C.2      1 ZINC000008551759    0.2900
43     N43    -9.4013  -16.7177    1.1361 N.2      1 ZINC000008551759   -0.4800
44     C44   -10.3414  -16.2983    2.0166 C.ar     1 ZINC000008551759   -0.1000
45     C45   -11.3720  -15.3438    1.9820 C.ar     1 ZINC000008551759    0.5000
46     N46   -11.5940  -14.5824    0.8479 N.pl3    1 ZINC000008551759   -0.8300
47     N47   -12.1290  -15.1896    3.0635 N.ar     1 ZINC000008551759   -0.6000
48     C48   -11.9247  -15.9120    4.1498 C.ar     1 ZINC000008551759    0.3400
49     N49   -10.9717  -16.8168    4.2279 N.ar     1 ZINC000008551759   -0.5400
50     C50   -10.1687  -17.0457    3.1941 C.ar     1 ZINC000008551759    0.2900
51     C51    -9.2813  -20.2117    3.7741 C.3      1 ZINC000008551759    0.0600
52     H52    -9.7337  -20.3126    2.7875 H        1 ZINC000008551759    0.0700
53     O53   -10.2743  -20.3375    4.7940 O.3      1 ZINC000008551759   -0.5000
54     C54    -8.1649  -21.2642    3.9706 C.3      1 ZINC000008551759    0.1500
55     H55    -8.0647  -21.8854    3.0806 H        1 ZINC000008551759    0.0800
56     O56    -8.4361  -22.0737    5.1166 O.3      1 ZINC000008551759   -0.7200
57     P57    -8.5920  -23.6744    5.0425 P.3      1 ZINC000008551759    2.1200
58     O58    -9.6922  -24.0437    3.9900 O.co2    1 ZINC000008551759   -1.1900
59     O59    -7.2264  -24.3130    4.6164 O.co2    1 ZINC000008551759   -1.1700
60     O60    -9.0093  -24.2241    6.4490 O.co2    1 ZINC000008551759   -1.1700
61     H61     9.4301   -5.8888   19.3999 H        1 ZINC000008551759    0.0500
62     H62    10.6877   -6.9310   20.1074 H        1 ZINC000008551759    0.0500
63     H63    11.0436   -5.9689   18.6527 H        1 ZINC000008551759    0.0500
64     H64    10.6571   -8.3487   18.0732 H        1 ZINC000008551759    0.0600
65     H65     9.0436   -8.2686   18.8205 H        1 ZINC000008551759    0.0600
66     H66     8.3870   -6.4985   17.2130 H        1 ZINC000008551759    0.0600
67     H67    10.0006   -6.5786   16.4657 H        1 ZINC000008551759    0.0600
68     H68     9.6141   -8.9584   15.8863 H        1 ZINC000008551759    0.0700
69     H69     8.0005   -8.8783   16.6335 H        1 ZINC000008551759    0.0700
70     H70     7.3440   -7.1081   15.0260 H        1 ZINC000008551759    0.1100
71     H71     8.9575   -7.1882   14.2788 H        1 ZINC000008551759    0.1100
72     H72     7.6344  -10.8394   11.8131 H        1 ZINC000008551759    0.1000
73     H73     6.0209  -10.7593   12.5604 H        1 ZINC000008551759    0.1000
74     H74     5.1250   -9.6885   10.5111 H        1 ZINC000008551759    0.0800
75     H75     6.7386   -9.7686    9.7639 H        1 ZINC000008551759    0.0800
76     H76     6.0145  -12.3676   10.5989 H        1 ZINC000008551759    0.4000
77     H77     5.8721  -13.8085    8.3260 H        1 ZINC000008551759    0.1000
78     H78     4.2586  -13.7284    9.0732 H        1 ZINC000008551759    0.1100
79     H79     3.3627  -12.6576    7.0239 H        1 ZINC000008551759    0.0800
80     H80     4.9763  -12.7377    6.2767 H        1 ZINC000008551759    0.0700
81     H81     4.2522  -15.3367    7.1117 H        1 ZINC000008551759    0.4000
82     H82     3.5947  -17.1018    6.6276 H        1 ZINC000008551759    0.3700
83     H83     1.2731  -15.2489    6.4042 H        1 ZINC000008551759    0.0400
84     H84     0.0848  -16.5356    6.0871 H        1 ZINC000008551759    0.0800
85     H85     1.6282  -16.9260    6.8833 H        1 ZINC000008551759    0.0500
86     H86     1.6419  -15.7652    2.7676 H        1 ZINC000008551759    0.0500
87     H87     0.0773  -15.9844    3.5874 H        1 ZINC000008551759    0.0800
88     H88     1.1386  -14.6300    4.0428 H        1 ZINC000008551759    0.0600
89     H89     2.0674  -18.2049    3.4150 H        1 ZINC000008551759    0.0500
90     H90     2.0921  -18.6522    5.1376 H        1 ZINC000008551759    0.0600
91     H91    -5.8498  -21.1269    2.4363 H        1 ZINC000008551759    0.0600
92     H92    -5.5730  -22.1009    3.9002 H        1 ZINC000008551759    0.1000
93     H93    -7.8542  -18.1580    1.2068 H        1 ZINC000008551759    0.2300
94     H94   -11.0349  -14.7044    0.0647 H        1 ZINC000008551759    0.4200
95     H95   -12.3087  -13.9266    0.8363 H        1 ZINC000008551759    0.4000
96     H96   -12.5633  -15.7544    5.0064 H        1 ZINC000008551759    0.2000
97     H97   -10.9672  -19.6642    4.7535 H        1 ZINC000008551759    0.3500
@<TRIPOS>BOND
1     1     2     1
2     1     61    1
3     1     62    1
4     1     63    1
5     2     3     1
6     2     64    1
7     2     65    1
8     3     4     1
9     3     66    1
10    3     67    1
11    4     5     1
12    4     68    1
13    4     69    1
14    5     6     1
15    5     70    1
16    5     71    1
17    6     7     2
18    6     8     1
19    8     9     1
20    9     10    1
21    9     72    1
22    9     73    1
23    10    11    1
24    10    74    1
25    10    75    1
26    11    12    am
27    11    76    1
28    12    13    2
29    12    14    1
30    14    15    1
31    14    77    1
32    14    78    1
33    15    16    1
34    15    79    1
35    15    80    1
36    16    17    am
37    16    81    1
38    17    18    2
39    17    19    1
40    19    20    1
41    19    21    1
42    19    22    1
43    21    82    1
44    22    23    1
45    22    24    1
46    22    25    1
47    23    83    1
48    23    84    1
49    23    85    1
50    24    86    1
51    24    87    1
52    24    88    1
53    25    26    1
54    25    89    1
55    25    90    1
56    26    27    1
57    27    28    ar
58    27    29    ar
59    27    30    1
60    30    31    1
61    31    32    ar
62    31    33    ar
63    31    34    1
64    34    35    1
65    35    36    1
66    35    91    1
67    35    92    1
68    36    37    1
69    36    54    1
70    36    38    1
71    38    39    1
72    39    40    1
73    39    41    1
74    39    51    1
75    41    50    1
76    41    42    1
77    42    43    2
78    42    93    1
79    43    44    1
80    44    50    ar
81    44    45    ar
82    45    46    1
83    45    47    ar
84    46    94    1
85    46    95    1
86    47    48    ar
87    48    49    ar
88    48    96    1
89    49    50    ar
90    51    52    1
91    51    53    1
92    51    54    1
93    53    97    1
94    54    55    1
95    54    56    1
96    56    57    1
97    57    58    ar
98    57    59    ar
99    57    60    ar
@<TRIPOS>SUBSTRUCTURE
1   ZINC000008551759 1     RESIDUE    1   A     ZIN   1
@<TRIPOS>MOLECULE
ZINC000008551747
94    96    1     0     0
SMALL
USER_CHARGES
@<TRIPOS>ATOM
1      C1      8.2642   -5.1913   15.8333 C.3      1 ZINC000008551747   -0.1800
2      C2      8.0227   -6.3327   14.8435 C.3      1 ZINC000008551747    0.0400
3      H3      7.3196   -7.0452   15.2751 H        1 ZINC000008551747    0.1500
4      N4      9.2941   -7.0110   14.5585 N.4      1 ZINC000008551747   -0.6400
5      H5      9.6760   -7.3836   15.4149 H        1 ZINC000008551747    0.4400
6      H6      9.1348   -7.7637   13.9057 H        1 ZINC000008551747    0.4400
7      H7      9.9449   -6.3515   14.1590 H        1 ZINC000008551747    0.4300
8      C8      7.4436   -5.7677   13.5449 C.3      1 ZINC000008551747   -0.1800
9      C9      7.0913   -6.9016   12.6169 C.2      1 ZINC000008551747    0.3000
10     O10     7.2844   -8.0491   12.9604 O.2      1 ZINC000008551747   -0.4700
11     S11     6.4186   -6.5705   11.0778 S.3      1 ZINC000008551747   -0.0400
12     C12     6.2183   -8.2574   10.4529 C.3      1 ZINC000008551747   -0.1300
13     C13     5.6145   -8.2124    9.0478 C.3      1 ZINC000008551747    0.1300
14     N14     5.4524   -9.5777    8.5420 N.am     1 ZINC000008551747   -0.7400
15     C15     4.9349   -9.7848    7.3149 C.2      1 ZINC000008551747    0.5200
16     O16     4.6034   -8.8408    6.6294 O.2      1 ZINC000008551747   -0.5200
17     C17     4.7681  -11.1893    6.7946 C.3      1 ZINC000008551747   -0.1500
18     C18     4.1643  -11.1443    5.3895 C.3      1 ZINC000008551747    0.1400
19     N19     4.0021  -12.5096    4.8837 N.am     1 ZINC000008551747   -0.7400
20     C20     3.4846  -12.7166    3.6566 C.2      1 ZINC000008551747    0.5000
21     O21     3.0692  -11.7800    3.0078 O.2      1 ZINC000008551747   -0.5200
22     C22     3.4222  -14.1120    3.0908 C.3      1 ZINC000008551747    0.1000
23     H23     3.8907  -14.1262    2.1067 H        1 ZINC000008551747    0.1400
24     O24     4.1141  -15.0101    3.9607 O.3      1 ZINC000008551747   -0.5500
25     C25     1.9607  -14.5469    2.9663 C.3      1 ZINC000008551747   -0.0900
26     C26     1.2667  -14.3970    4.3216 C.3      1 ZINC000008551747   -0.1400
27     C27     1.2537  -13.6693    1.9314 C.3      1 ZINC000008551747   -0.1400
28     C28     1.9000  -16.0095    2.5213 C.3      1 ZINC000008551747    0.1500
29     O29     0.5349  -16.4158    2.4050 O.3      1 ZINC000008551747   -0.7700
30     P30     0.0964  -17.8984    1.9560 P.3      1 ZINC000008551747    2.3000
31     O31     0.7539  -18.2416    0.6006 O.co2    1 ZINC000008551747   -1.1100
32     O32     0.5554  -18.9167    3.0235 O.co2    1 ZINC000008551747   -1.1100
33     O33    -1.5054  -17.9624    1.8069 O.3      1 ZINC000008551747   -1.0900
34     P34    -2.5241  -19.0036    1.1212 P.3      1 ZINC000008551747    2.2900
35     O35    -2.1163  -20.4459    1.4961 O.co2    1 ZINC000008551747   -1.1000
36     O36    -2.4749  -18.8370   -0.4140 O.co2    1 ZINC000008551747   -1.1100
37     O37    -4.0191  -18.7154    1.6446 O.3      1 ZINC000008551747   -0.7700
38     C38    -5.1363  -19.5372    1.3001 C.3      1 ZINC000008551747    0.1400
39     C39    -6.3998  -18.9838    1.9622 C.3      1 ZINC000008551747    0.0700
40     H40    -6.2498  -18.8799    3.0368 H        1 ZINC000008551747    0.1000
41     O41    -6.7571  -17.7118    1.3790 O.3      1 ZINC000008551747   -0.3600
42     C42    -8.1563  -17.5311    1.6881 C.3      1 ZINC000008551747    0.2600
43     H43    -8.2776  -17.2047    2.7210 H        1 ZINC000008551747    0.1200
44     N44    -8.7593  -16.5590    0.7730 N.pl3    1 ZINC000008551747   -0.4500
45     C45    -8.3108  -16.2389   -0.4739 C.2      1 ZINC000008551747    0.2900
46     N46    -9.0844  -15.3386   -1.0072 N.2      1 ZINC000008551747   -0.4800
47     C47   -10.0758  -15.0244   -0.1391 C.ar     1 ZINC000008551747   -0.1000
48     C48   -11.1704  -14.1439   -0.1657 C.ar     1 ZINC000008551747    0.5000
49     N49   -11.4150  -13.3516   -1.2737 N.pl3    1 ZINC000008551747   -0.8300
50     N50   -11.9658  -14.0899    0.8977 N.ar     1 ZINC000008551747   -0.6000
51     C51   -11.7405  -14.8424    1.9591 C.ar     1 ZINC000008551747    0.3400
52     N52   -10.7279  -15.6808    2.0288 N.ar     1 ZINC000008551747   -0.5400
53     C53    -9.8826  -15.8080    1.0113 C.ar     1 ZINC000008551747    0.3000
54     C54    -8.7883  -18.9263    1.4873 C.3      1 ZINC000008551747    0.0600
55     H55    -9.2051  -19.0159    0.4841 H        1 ZINC000008551747    0.0700
56     O56    -9.7973  -19.1652    2.4706 O.3      1 ZINC000008551747   -0.5000
57     C57    -7.6055  -19.9056    1.6742 C.3      1 ZINC000008551747    0.1500
58     H58    -7.4370  -20.4792    0.7628 H        1 ZINC000008551747    0.0800
59     O59    -7.8496  -20.7807    2.7771 O.3      1 ZINC000008551747   -0.7200
60     P60    -7.8891  -22.3837    2.6325 P.3      1 ZINC000008551747    2.1200
61     O61    -8.9309  -22.7834    1.5329 O.co2    1 ZINC000008551747   -1.1900
62     O62    -6.4703  -22.9062    2.2222 O.co2    1 ZINC000008551747   -1.1700
63     O63    -8.3045  -23.0215    4.0019 O.co2    1 ZINC000008551747   -1.1700
64     H64     7.3208   -4.6880   16.0448 H        1 ZINC000008551747    0.1100
65     H65     8.6767   -5.5938   16.7585 H        1 ZINC000008551747    0.0900
66     H66     8.9673   -4.4788   15.4017 H        1 ZINC000008551747    0.0800
67     H67     6.5473   -5.1891   13.7682 H        1 ZINC000008551747    0.1500
68     H68     8.1823   -5.1237   13.0677 H        1 ZINC000008551747    0.1300
69     H69     7.1906   -8.7487   10.4149 H        1 ZINC000008551747    0.1100
70     H70     5.5556   -8.8140   11.1155 H        1 ZINC000008551747    0.1100
71     H71     4.6422   -7.7212    9.0857 H        1 ZINC000008551747    0.0800
72     H72     6.2772   -7.6558    8.3852 H        1 ZINC000008551747    0.0800
73     H73     5.7175  -10.3327    9.0903 H        1 ZINC000008551747    0.4000
74     H74     5.7404  -11.6805    6.7567 H        1 ZINC000008551747    0.1100
75     H75     4.1054  -11.7459    7.4572 H        1 ZINC000008551747    0.1100
76     H76     3.1920  -10.6530    5.4275 H        1 ZINC000008551747    0.0800
77     H77     4.8270  -10.5876    4.7269 H        1 ZINC000008551747    0.0700
78     H78     4.2672  -13.2646    5.4320 H        1 ZINC000008551747    0.4000
79     H79     3.7506  -15.0488    4.8559 H        1 ZINC000008551747    0.3700
80     H80     1.3099  -13.3550    4.6386 H        1 ZINC000008551747    0.0400
81     H81     0.2254  -14.7068    4.2329 H        1 ZINC000008551747    0.0800
82     H82     1.7703  -15.0222    5.0588 H        1 ZINC000008551747    0.0500
83     H83     1.8141  -13.6868    0.9966 H        1 ZINC000008551747    0.0500
84     H84     0.2471  -14.0501    1.7589 H        1 ZINC000008551747    0.0800
85     H85     1.1964  -12.6456    2.3016 H        1 ZINC000008551747    0.0600
86     H86     2.3944  -16.1164    1.5558 H        1 ZINC000008551747    0.0500
87     H87     2.4036  -16.6348    3.2585 H        1 ZINC000008551747    0.0600
88     H88    -5.2649  -19.5404    0.2177 H        1 ZINC000008551747    0.0600
89     H89    -4.9597  -20.5549    1.6481 H        1 ZINC000008551747    0.1000
90     H90    -7.4413  -16.6687   -0.9489 H        1 ZINC000008551747    0.2300
91     H91   -10.8274  -13.4002   -2.0440 H        1 ZINC000008551747    0.4200
92     H92   -12.1739  -12.7476   -1.2801 H        1 ZINC000008551747    0.4000
93     H93   -12.4118  -14.7670    2.8017 H        1 ZINC000008551747    0.2000
94     H94   -10.5350  -18.5410    2.4368 H        1 ZINC000008551747    0.3500
@<TRIPOS>BOND
1     1     2     1
2     1     64    1
3     1     65    1
4     1     66    1
5     2     3     1
6     2     4     1
7     2     8     1
8     4     5     1
9     4     6     1
10    4     7     1
11    8     9     1
12    8     67    1
13    8     68    1
14    9     10    2
15    9     11    1
16    11    12    1
17    12    13    1
18    12    69    1
19    12    70    1
20    13    14    1
21    13    71    1
22    13    72    1
23    14    15    am
24    14    73    1
25    15    16    2
26    15    17    1
27    17    18    1
28    17    74    1
29    17    75    1
30    18    19    1
31    18    76    1
32    18    77    1
33    19    20    am
34    19    78    1
35    20    21    2
36    20    22    1
37    22    23    1
38    22    24    1
39    22    25    1
40    24    79    1
41    25    26    1
42    25    27    1
43    25    28    1
44    26    80    1
45    26    81    1
46    26    82    1
47    27    83    1
48    27    84    1
49    27    85    1
50    28    29    1
51    28    86    1
52    28    87    1
53    29    30    1
54    30    31    ar
55    30    32    ar
56    30    33    1
57    33    34    1
58    34    35    ar
59    34    36    ar
60    34    37    1
61    37    38    1
62    38    39    1
63    38    88    1
64    38    89    1
65    39    40    1
66    39    57    1
67    39    41    1
68    41    42    1
69    42    43    1
70    42    44    1
71    42    54    1
72    44    53    1
73    44    45    1
74    45    46    2
75    45    90    1
76    46    47    1
77    47    53    ar
78    47    48    ar
79    48    49    1
80    48    50    ar
81    49    91    1
82    49    92    1
83    50    51    ar
84    51    52    ar
85    51    93    1
86    52    53    ar
87    54    55    1
88    54    56    1
89    54    57    1
90    56    94    1
91    57    58    1
92    57    59    1
93    59    60    1
94    60    61    ar
95    60    62    ar
96    60    63    ar
@<TRIPOS>SUBSTRUCTURE
1   ZINC000008551747 1     RESIDUE    1   A     ZIN   1
@<TRIPOS>MOLECULE
ZINC000008551904
89    91    1     0     0
SMALL
USER_CHARGES
@<TRIPOS>ATOM
1      C1     -0.0985    1.3509    0.2822 C.3      1 ZINC000008551904   -0.1500
2      C2     -0.1133   -0.1556    0.0155 C.3      1 ZINC000008551904   -0.1000
3      C3      0.5901   -0.8836    1.1627 C.3      1 ZINC000008551904   -0.1300
4      C4     -1.5606   -0.6414   -0.0855 C.3      1 ZINC000008551904    0.1400
5      O5     -2.2415   -0.3681    1.1407 O.3      1 ZINC000008551904   -0.7600
6      P6     -3.7866   -0.7464    1.3890 P.3      1 ZINC000008551904    2.2900
7      O7     -4.6557   -0.1184    0.2767 O.co2    1 ZINC000008551904   -1.1000
8      O8     -3.9509   -2.2825    1.3654 O.co2    1 ZINC000008551904   -1.1100
9      O9     -4.2548   -0.1785    2.8209 O.3      1 ZINC000008551904   -1.0900
10     P10    -5.6875    0.0547    3.5174 P.3      1 ZINC000008551904    2.2900
11     O11    -6.6844    0.6047    2.4731 O.co2    1 ZINC000008551904   -1.1000
12     O12    -6.2135   -1.2867    4.0750 O.co2    1 ZINC000008551904   -1.1000
13     O13    -5.5331    1.1127    4.7211 O.3      1 ZINC000008551904   -0.7700
14     C14    -6.6453    1.6085    5.4689 C.3      1 ZINC000008551904    0.1400
15     C15    -6.1483    2.5907    6.5316 C.3      1 ZINC000008551904    0.0700
16     H16    -5.3807    2.1241    7.1491 H        1 ZINC000008551904    0.1000
17     O17    -5.6334    3.7875    5.9084 O.3      1 ZINC000008551904   -0.3500
18     C18    -5.6655    4.7977    6.9401 C.3      1 ZINC000008551904    0.2600
19     H19    -4.8245    4.6707    7.6218 H        1 ZINC000008551904    0.1200
20     N20    -5.6403    6.1359    6.3445 N.pl3    1 ZINC000008551904   -0.4500
21     C21    -6.0404    6.4653    5.0836 C.2      1 ZINC000008551904    0.2900
22     N22    -5.8814    7.7417    4.8859 N.2      1 ZINC000008551904   -0.4800
23     C23    -5.3706    8.3110    6.0040 C.ar     1 ZINC000008551904   -0.1000
24     C24    -5.0011    9.6170    6.3675 C.ar     1 ZINC000008551904    0.5000
25     N25    -5.1372   10.6657    5.4748 N.pl3    1 ZINC000008551904   -0.8300
26     N26    -4.5183    9.8219    7.5887 N.ar     1 ZINC000008551904   -0.6000
27     C27    -4.3854    8.8274    8.4472 C.ar     1 ZINC000008551904    0.3400
28     N28    -4.7178    7.5886    8.1506 N.ar     1 ZINC000008551904   -0.5400
29     C29    -5.2153    7.2885    6.9554 C.ar     1 ZINC000008551904    0.2900
30     C30    -6.9997    4.5617    7.6821 C.3      1 ZINC000008551904    0.0600
31     H31    -7.7809    5.2049    7.2771 H        1 ZINC000008551904    0.0700
32     O32    -6.8406    4.7912    9.0836 O.3      1 ZINC000008551904   -0.5000
33     C33    -7.3241    3.0741    7.4091 C.3      1 ZINC000008551904    0.1500
34     H34    -8.2659    2.9817    6.8681 H        1 ZINC000008551904    0.0800
35     O35    -7.3778    2.3403    8.6341 O.3      1 ZINC000008551904   -0.7200
36     P36    -8.6839    1.5312    9.1151 P.3      1 ZINC000008551904    2.1200
37     O37    -9.9162    2.4982    9.1433 O.co2    1 ZINC000008551904   -1.1900
38     O38    -8.9658    0.3550    8.1193 O.co2    1 ZINC000008551904   -1.1700
39     O39    -8.4408    0.9530   10.5508 O.co2    1 ZINC000008551904   -1.1700
40     C40     0.6157   -0.4483   -1.2974 C.3      1 ZINC000008551904    0.1100
41     H41     1.6142   -0.0124   -1.2635 H        1 ZINC000008551904    0.1200
42     O42     0.7190   -1.8618   -1.4801 O.3      1 ZINC000008551904   -0.5400
43     C43    -0.1555    0.1515   -2.4448 C.2      1 ZINC000008551904    0.4900
44     O44    -0.7013   -0.5707   -3.2519 O.2      1 ZINC000008551904   -0.5200
45     N45    -0.2388    1.4905   -2.5740 N.am     1 ZINC000008551904   -0.7300
46     C46    -1.0675    2.0742   -3.6317 C.3      1 ZINC000008551904    0.1300
47     C47    -0.9878    3.6004   -3.5583 C.3      1 ZINC000008551904   -0.1500
48     C48    -1.8403    4.2008   -4.6463 C.2      1 ZINC000008551904    0.5200
49     O49    -2.4515    3.4791   -5.4056 O.2      1 ZINC000008551904   -0.5200
50     N50    -1.9236    5.5398   -4.7755 N.am     1 ZINC000008551904   -0.7300
51     C51    -2.7523    6.1235   -5.8332 C.3      1 ZINC000008551904    0.1300
52     C52    -2.6726    7.6497   -5.7598 C.3      1 ZINC000008551904   -0.1200
53     S53    -3.6965    8.3708   -7.0665 S.3      1 ZINC000008551904   -0.1000
54     C54    -3.4343   10.0356   -6.7650 C.2      1 ZINC000008551904    0.3300
55     O55    -2.7095   10.3805   -5.8552 O.2      1 ZINC000008551904   -0.4500
56     C56    -4.1038   11.0725   -7.6296 C.3      1 ZINC000008551904   -0.1500
57     C57    -3.7053   12.4700   -7.1510 C.3      1 ZINC000008551904    0.0900
58     O58    -4.3402   13.4533   -7.9709 O.3      1 ZINC000008551904   -0.5700
59     H59     0.9273    1.7171    0.2410 H        1 ZINC000008551904    0.0500
60     H60    -0.6966    1.8597   -0.4738 H        1 ZINC000008551904    0.0600
61     H61    -0.5157    1.5492    1.2695 H        1 ZINC000008551904    0.0800
62     H62     0.0362   -0.7245    2.0879 H        1 ZINC000008551904    0.0800
63     H63     0.6331   -1.9505    0.9439 H        1 ZINC000008551904    0.0600
64     H64     1.6022   -0.4943    1.2737 H        1 ZINC000008551904    0.0500
65     H65    -2.0617   -0.1228   -0.9028 H        1 ZINC000008551904    0.0500
66     H66    -1.5712   -1.7147   -0.2755 H        1 ZINC000008551904    0.0500
67     H67    -7.3362    2.1185    4.7976 H        1 ZINC000008551904    0.0600
68     H68    -7.1569    0.7770    5.9537 H        1 ZINC000008551904    0.1000
69     H69    -6.4312    5.7695    4.3559 H        1 ZINC000008551904    0.2300
70     H70    -5.4912   10.5036    4.5864 H        1 ZINC000008551904    0.4200
71     H71    -4.8786   11.5629    5.7376 H        1 ZINC000008551904    0.4000
72     H72    -3.9887    9.0381    9.4294 H        1 ZINC000008551904    0.2000
73     H73    -6.5780    5.6946    9.3069 H        1 ZINC000008551904    0.3500
74     H74    -0.1335   -2.3166   -1.5195 H        1 ZINC000008551904    0.3900
75     H75     0.2500    2.0677   -1.9666 H        1 ZINC000008551904    0.4000
76     H76    -0.7064    1.7378   -4.6035 H        1 ZINC000008551904    0.0700
77     H77    -2.1021    1.7576   -3.4990 H        1 ZINC000008551904    0.0900
78     H78    -1.3490    3.9367   -2.5864 H        1 ZINC000008551904    0.1100
79     H79     0.0467    3.9170   -3.6909 H        1 ZINC000008551904    0.1000
80     H80    -1.4348    6.1170   -4.1681 H        1 ZINC000008551904    0.4000
81     H81    -2.3912    5.7871   -6.8050 H        1 ZINC000008551904    0.0800
82     H82    -3.7869    5.8069   -5.7005 H        1 ZINC000008551904    0.0800
83     H83    -3.0338    7.9860   -4.7879 H        1 ZINC000008551904    0.1100
84     H84    -1.6381    7.9663   -5.8924 H        1 ZINC000008551904    0.1000
85     H85    -3.7900   10.9398   -8.6650 H        1 ZINC000008551904    0.1100
86     H86    -5.1857   10.9596   -7.5605 H        1 ZINC000008551904    0.1100
87     H87    -4.0191   12.6027   -6.1157 H        1 ZINC000008551904    0.0600
88     H88    -2.6234   12.5829   -7.2201 H        1 ZINC000008551904    0.0500
89     H89    -4.1321   14.3649   -7.7243 H        1 ZINC000008551904    0.3800
@<TRIPOS>BOND
1     1     2     1
2     1     59    1
3     1     60    1
4     1     61    1
5     2     3     1
6     2     4     1
7     2     40    1
8     3     62    1
9     3     63    1
10    3     64    1
11    4     5     1
12    4     65    1
13    4     66    1
14    5     6     1
15    6     7     ar
16    6     8     ar
17    6     9     1
18    9     10    1
19    10    11    ar
20    10    12    ar
21    10    13    1
22    13    14    1
23    14    15    1
24    14    67    1
25    14    68    1
26    15    16    1
27    15    33    1
28    15    17    1
29    17    18    1
30    18    19    1
31    18    20    1
32    18    30    1
33    20    29    1
34    20    21    1
35    21    22    2
36    21    69    1
37    22    23    1
38    23    29    ar
39    23    24    ar
40    24    25    1
41    24    26    ar
42    25    70    1
43    25    71    1
44    26    27    ar
45    27    28    ar
46    27    72    1
47    28    29    ar
48    30    31    1
49    30    32    1
50    30    33    1
51    32    73    1
52    33    34    1
53    33    35    1
54    35    36    1
55    36    37    ar
56    36    38    ar
57    36    39    ar
58    40    41    1
59    40    42    1
60    40    43    1
61    42    74    1
62    43    44    2
63    43    45    am
64    45    46    1
65    45    75    1
66    46    47    1
67    46    76    1
68    46    77    1
69    47    48    1
70    47    78    1
71    47    79    1
72    48    49    2
73    48    50    am
74    50    51    1
75    50    80    1
76    51    52    1
77    51    81    1
78    51    82    1
79    52    53    1
80    52    83    1
81    52    84    1
82    53    54    1
83    54    55    2
84    54    56    1
85    56    57    1
86    56    85    1
87    56    86    1
88    57    58    1
89    57    87    1
90    57    88    1
91    58    89    1
@<TRIPOS>SUBSTRUCTURE
1   ZINC000008551904 1     RESIDUE    1   A     ZIN   1
@<TRIPOS>MOLECULE
ZINC000008551269
86    88    1     0     0
SMALL
USER_CHARGES
@<TRIPOS>ATOM
1      C1      1.8595  -17.7450    1.6656 C.2      1 ZINC000008551269   -0.0800
2      C2      1.5854  -16.4478    1.5633 C.2      1 ZINC000008551269   -0.2200
3      C3      0.1918  -15.9997    1.4194 C.2      1 ZINC000008551269    0.3800
4      O4     -0.7101  -16.8159    1.3941 O.2      1 ZINC000008551269   -0.4500
5      S5     -0.1715  -14.2809    1.2838 S.3      1 ZINC000008551269   -0.1400
6      C6     -1.9742  -14.3512    1.1375 C.3      1 ZINC000008551269   -0.1100
7      C7     -2.5308  -12.9323    1.0041 C.3      1 ZINC000008551269    0.1400
8      N8     -3.9899  -12.9892    0.8858 N.am     1 ZINC000008551269   -0.7300
9      C9     -4.7004  -11.8512    0.7567 C.2      1 ZINC000008551269    0.5200
10     O10    -4.1318  -10.7801    0.7386 O.2      1 ZINC000008551269   -0.5300
11     C11    -6.2013  -11.9098    0.6349 C.3      1 ZINC000008551269   -0.1500
12     C12    -6.7579  -10.4908    0.5015 C.3      1 ZINC000008551269    0.1400
13     N13    -8.2170  -10.5478    0.3831 N.am     1 ZINC000008551269   -0.7400
14     C14    -8.9275   -9.4098    0.2541 C.2      1 ZINC000008551269    0.5000
15     O15    -8.3703   -8.3352    0.3292 O.2      1 ZINC000008551269   -0.5300
16     C16   -10.4143   -9.4727    0.0164 C.3      1 ZINC000008551269    0.1000
17     H17   -10.9210   -8.7940    0.7026 H        1 ZINC000008551269    0.1400
18     O18   -10.8762  -10.8067    0.2382 O.3      1 ZINC000008551269   -0.5500
19     C19   -10.7182   -9.0608   -1.4254 C.3      1 ZINC000008551269   -0.0900
20     C20   -10.3601   -7.5862   -1.6209 C.3      1 ZINC000008551269   -0.1400
21     C21    -9.8913   -9.9181   -2.3857 C.3      1 ZINC000008551269   -0.1400
22     C22   -12.2071   -9.2663   -1.7115 C.3      1 ZINC000008551269    0.1500
23     O23   -12.4909   -8.8817   -3.0582 O.3      1 ZINC000008551269   -0.7700
24     P24   -13.9640   -8.9665   -3.7025 P.3      1 ZINC000008551269    2.2900
25     O25   -14.5098  -10.4040   -3.5521 O.co2    1 ZINC000008551269   -1.1000
26     O26   -14.9028   -7.9802   -2.9727 O.co2    1 ZINC000008551269   -1.1100
27     O27   -13.8898   -8.5813   -5.2639 O.3      1 ZINC000008551269   -1.0900
28     P28   -14.8954   -8.7587   -6.5086 P.3      1 ZINC000008551269    2.2900
29     O29   -15.5816  -10.1404   -6.4234 O.co2    1 ZINC000008551269   -1.1000
30     O30   -15.9680   -7.6476   -6.4667 O.co2    1 ZINC000008551269   -1.1000
31     O31   -14.0682   -8.6544   -7.8860 O.3      1 ZINC000008551269   -0.7700
32     C32   -14.6601   -8.8742   -9.1679 C.3      1 ZINC000008551269    0.1400
33     C33   -13.5997   -8.6971  -10.2564 C.3      1 ZINC000008551269    0.0700
34     H34   -13.1167   -7.7247  -10.1600 H        1 ZINC000008551269    0.1000
35     O35   -12.6195   -9.7551  -10.1803 O.3      1 ZINC000008551269   -0.3500
36     C36   -11.9960   -9.7905  -11.4826 C.3      1 ZINC000008551269    0.2600
37     H37   -11.2668   -8.9858  -11.5762 H        1 ZINC000008551269    0.1200
38     N38   -11.3534  -11.0881  -11.7052 N.pl3    1 ZINC000008551269   -0.4500
39     C39   -11.6757  -12.2633  -11.0940 C.2      1 ZINC000008551269    0.2900
40     N40   -10.9031  -13.2165  -11.5277 N.2      1 ZINC000008551269   -0.4800
41     C41   -10.0384  -12.7152  -12.4421 C.ar     1 ZINC000008551269   -0.1000
42     C42    -9.0036  -13.2559  -13.2239 C.ar     1 ZINC000008551269    0.5000
43     N43    -8.6841  -14.6000  -13.1440 N.pl3    1 ZINC000008551269   -0.8300
44     N44    -8.3390  -12.4465  -14.0423 N.ar     1 ZINC000008551269   -0.6000
45     C45    -8.6373  -11.1628  -14.1254 C.ar     1 ZINC000008551269    0.3400
46     N46    -9.5976  -10.6129  -13.4125 N.ar     1 ZINC000008551269   -0.5400
47     C47   -10.3209  -11.3447  -12.5714 C.ar     1 ZINC000008551269    0.3000
48     C48   -13.1562   -9.5839  -12.4814 C.3      1 ZINC000008551269    0.0600
49     H49   -13.5331  -10.5443  -12.8330 H        1 ZINC000008551269    0.0700
50     O50   -12.7306   -8.7805  -13.5839 O.3      1 ZINC000008551269   -0.5000
51     C51   -14.2360   -8.8450  -11.6563 C.3      1 ZINC000008551269    0.1500
52     H52   -15.1470   -9.4407  -11.5992 H        1 ZINC000008551269    0.0800
53     O53   -14.5118   -7.5638  -12.2259 O.3      1 ZINC000008551269   -0.7200
54     P54   -15.9777   -7.1235  -12.7253 P.3      1 ZINC000008551269    2.1200
55     O55   -16.5150   -8.1730  -13.7569 O.co2    1 ZINC000008551269   -1.1900
56     O56   -16.9485   -7.0534  -11.4978 O.co2    1 ZINC000008551269   -1.1700
57     O57   -15.8959   -5.7154  -13.4074 O.co2    1 ZINC000008551269   -1.1700
58     H58     2.8828  -18.0740    1.7713 H        1 ZINC000008551269    0.1200
59     H59     1.0586  -18.4693    1.6476 H        1 ZINC000008551269    0.1100
60     H60     2.3860  -15.7232    1.5858 H        1 ZINC000008551269    0.1400
61     H61    -2.2448  -14.9320    0.2558 H        1 ZINC000008551269    0.1000
62     H62    -2.3927  -14.8236    2.0263 H        1 ZINC000008551269    0.1000
63     H63    -2.2602  -12.3514    1.8859 H        1 ZINC000008551269    0.0800
64     H64    -2.1123  -12.4599    0.1154 H        1 ZINC000008551269    0.0800
65     H65    -4.4446  -13.8459    0.9002 H        1 ZINC000008551269    0.4000
66     H66    -6.4719  -12.4906   -0.2469 H        1 ZINC000008551269    0.1100
67     H67    -6.6198  -12.3821    1.5236 H        1 ZINC000008551269    0.1000
68     H68    -6.4873   -9.9100    1.3833 H        1 ZINC000008551269    0.0700
69     H69    -6.3394  -10.0185   -0.3872 H        1 ZINC000008551269    0.0800
70     H70    -8.6717  -11.4044    0.3976 H        1 ZINC000008551269    0.4000
71     H71   -10.4668  -11.4657   -0.3391 H        1 ZINC000008551269    0.3700
72     H72    -9.2858   -7.4533   -1.4934 H        1 ZINC000008551269    0.0600
73     H73   -10.6485   -7.2722   -2.6241 H        1 ZINC000008551269    0.0800
74     H74   -10.8908   -6.9827   -0.8846 H        1 ZINC000008551269    0.0500
75     H75   -10.1464  -10.9687   -2.2465 H        1 ZINC000008551269    0.0500
76     H76   -10.1078   -9.6248   -3.4129 H        1 ZINC000008551269    0.0800
77     H77    -8.8306   -9.7717   -2.1819 H        1 ZINC000008551269    0.0400
78     H78   -12.4622  -10.3169   -1.5722 H        1 ZINC000008551269    0.0600
79     H79   -12.7962   -8.6556   -1.0274 H        1 ZINC000008551269    0.0500
80     H80   -15.0624   -9.8862   -9.2137 H        1 ZINC000008551269    0.0600
81     H81   -15.4649   -8.1559   -9.3244 H        1 ZINC000008551269    0.1000
82     H82   -12.4565  -12.3851  -10.3579 H        1 ZINC000008551269    0.2300
83     H83    -9.1767  -15.1807  -12.5431 H        1 ZINC000008551269    0.4200
84     H84    -7.9675  -14.9614  -13.6888 H        1 ZINC000008551269    0.4000
85     H85    -8.0719  -10.5407  -14.8034 H        1 ZINC000008551269    0.2000
86     H86   -12.0122   -9.1704  -14.1006 H        1 ZINC000008551269    0.3500
@<TRIPOS>BOND
1     1     2     2
2     1     58    1
3     1     59    1
4     2     3     1
5     2     60    1
6     3     4     2
7     3     5     1
8     5     6     1
9     6     7     1
10    6     61    1
11    6     62    1
12    7     8     1
13    7     63    1
14    7     64    1
15    8     9     am
16    8     65    1
17    9     10    2
18    9     11    1
19    11    12    1
20    11    66    1
21    11    67    1
22    12    13    1
23    12    68    1
24    12    69    1
25    13    14    am
26    13    70    1
27    14    15    2
28    14    16    1
29    16    17    1
30    16    18    1
31    16    19    1
32    18    71    1
33    19    20    1
34    19    21    1
35    19    22    1
36    20    72    1
37    20    73    1
38    20    74    1
39    21    75    1
40    21    76    1
41    21    77    1
42    22    23    1
43    22    78    1
44    22    79    1
45    23    24    1
46    24    25    ar
47    24    26    ar
48    24    27    1
49    27    28    1
50    28    29    ar
51    28    30    ar
52    28    31    1
53    31    32    1
54    32    33    1
55    32    80    1
56    32    81    1
57    33    34    1
58    33    51    1
59    33    35    1
60    35    36    1
61    36    37    1
62    36    38    1
63    36    48    1
64    38    47    1
65    38    39    1
66    39    40    2
67    39    82    1
68    40    41    1
69    41    47    ar
70    41    42    ar
71    42    43    1
72    42    44    ar
73    43    83    1
74    43    84    1
75    44    45    ar
76    45    46    ar
77    45    85    1
78    46    47    ar
79    48    49    1
80    48    50    1
81    48    51    1
82    50    86    1
83    51    52    1
84    51    53    1
85    53    54    1
86    54    55    ar
87    54    56    ar
88    54    57    ar
@<TRIPOS>SUBSTRUCTURE
1   ZINC000008551269 1     RESIDUE    1   A     ZIN   1
@<TRIPOS>MOLECULE
ZINC000008551192
93    95    1     0     0
SMALL
USER_CHARGES
@<TRIPOS>ATOM
1      C1     -0.0985    1.3509    0.2822 C.3      1 ZINC000008551192   -0.1500
2      C2     -0.1133   -0.1556    0.0155 C.3      1 ZINC000008551192   -0.1000
3      C3      0.5901   -0.8836    1.1627 C.3      1 ZINC000008551192   -0.1300
4      C4     -1.5606   -0.6414   -0.0855 C.3      1 ZINC000008551192    0.1400
5      O5     -2.2415   -0.3681    1.1407 O.3      1 ZINC000008551192   -0.7600
6      P6     -3.7866   -0.7464    1.3890 P.3      1 ZINC000008551192    2.2900
7      O7     -4.6557   -0.1184    0.2767 O.co2    1 ZINC000008551192   -1.1000
8      O8     -3.9509   -2.2825    1.3654 O.co2    1 ZINC000008551192   -1.1100
9      O9     -4.2548   -0.1785    2.8209 O.3      1 ZINC000008551192   -1.0900
10     P10    -5.6875    0.0547    3.5174 P.3      1 ZINC000008551192    2.2900
11     O11    -6.6844    0.6047    2.4731 O.co2    1 ZINC000008551192   -1.1000
12     O12    -6.2135   -1.2867    4.0750 O.co2    1 ZINC000008551192   -1.1000
13     O13    -5.5331    1.1127    4.7211 O.3      1 ZINC000008551192   -0.7700
14     C14    -6.6453    1.6085    5.4689 C.3      1 ZINC000008551192    0.1400
15     C15    -6.1483    2.5907    6.5316 C.3      1 ZINC000008551192    0.0700
16     H16    -5.3807    2.1241    7.1491 H        1 ZINC000008551192    0.1000
17     O17    -5.6334    3.7875    5.9084 O.3      1 ZINC000008551192   -0.3500
18     C18    -5.6655    4.7977    6.9401 C.3      1 ZINC000008551192    0.2600
19     H19    -4.8245    4.6707    7.6218 H        1 ZINC000008551192    0.1200
20     N20    -5.6403    6.1359    6.3445 N.pl3    1 ZINC000008551192   -0.4500
21     C21    -6.0404    6.4653    5.0836 C.2      1 ZINC000008551192    0.2900
22     N22    -5.8814    7.7417    4.8859 N.2      1 ZINC000008551192   -0.4800
23     C23    -5.3706    8.3110    6.0040 C.ar     1 ZINC000008551192   -0.1000
24     C24    -5.0011    9.6170    6.3675 C.ar     1 ZINC000008551192    0.5000
25     N25    -5.1372   10.6657    5.4748 N.pl3    1 ZINC000008551192   -0.8300
26     N26    -4.5183    9.8219    7.5887 N.ar     1 ZINC000008551192   -0.6000
27     C27    -4.3854    8.8274    8.4472 C.ar     1 ZINC000008551192    0.3400
28     N28    -4.7178    7.5886    8.1506 N.ar     1 ZINC000008551192   -0.5400
29     C29    -5.2153    7.2885    6.9554 C.ar     1 ZINC000008551192    0.2900
30     C30    -6.9997    4.5617    7.6821 C.3      1 ZINC000008551192    0.0600
31     H31    -7.7809    5.2049    7.2771 H        1 ZINC000008551192    0.0700
32     O32    -6.8406    4.7912    9.0836 O.3      1 ZINC000008551192   -0.5000
33     C33    -7.3241    3.0741    7.4091 C.3      1 ZINC000008551192    0.1500
34     H34    -8.2659    2.9817    6.8681 H        1 ZINC000008551192    0.0800
35     O35    -7.3778    2.3403    8.6341 O.3      1 ZINC000008551192   -0.7200
36     P36    -8.6839    1.5312    9.1151 P.3      1 ZINC000008551192    2.1200
37     O37    -9.9162    2.4982    9.1433 O.co2    1 ZINC000008551192   -1.1900
38     O38    -8.9658    0.3550    8.1193 O.co2    1 ZINC000008551192   -1.1700
39     O39    -8.4408    0.9530   10.5508 O.co2    1 ZINC000008551192   -1.1700
40     C40     0.6157   -0.4483   -1.2974 C.3      1 ZINC000008551192    0.1100
41     H41     1.6142   -0.0124   -1.2635 H        1 ZINC000008551192    0.1200
42     O42     0.7190   -1.8618   -1.4801 O.3      1 ZINC000008551192   -0.5400
43     C43    -0.1555    0.1515   -2.4448 C.2      1 ZINC000008551192    0.4900
44     O44    -0.7013   -0.5707   -3.2519 O.2      1 ZINC000008551192   -0.5300
45     N45    -0.2388    1.4905   -2.5740 N.am     1 ZINC000008551192   -0.7300
46     C46    -1.0675    2.0742   -3.6317 C.3      1 ZINC000008551192    0.1300
47     C47    -0.9878    3.6004   -3.5583 C.3      1 ZINC000008551192   -0.1500
48     C48    -1.8403    4.2008   -4.6463 C.2      1 ZINC000008551192    0.5200
49     O49    -2.4515    3.4791   -5.4056 O.2      1 ZINC000008551192   -0.5300
50     N50    -1.9236    5.5398   -4.7755 N.am     1 ZINC000008551192   -0.7300
51     C51    -2.7523    6.1235   -5.8332 C.3      1 ZINC000008551192    0.1400
52     C52    -2.6726    7.6497   -5.7598 C.3      1 ZINC000008551192   -0.1200
53     S53    -3.6965    8.3708   -7.0665 S.3      1 ZINC000008551192   -0.1400
54     C54    -3.4343   10.0356   -6.7650 C.2      1 ZINC000008551192    0.3300
55     O55    -2.7095   10.3805   -5.8552 O.2      1 ZINC000008551192   -0.4400
56     C56    -4.1038   11.0725   -7.6296 C.3      1 ZINC000008551192   -0.1500
57     C57    -3.7053   12.4700   -7.1510 C.3      1 ZINC000008551192   -0.0800
58     C58    -4.3850   13.5228   -8.0288 C.3      1 ZINC000008551192   -0.1800
59     C59    -3.9925   14.8993   -7.5575 C.2      1 ZINC000008551192    0.4900
60     O60    -3.2389   15.0265   -6.6075 O.co2    1 ZINC000008551192   -0.6900
61     O61    -4.4285   15.8858   -8.1261 O.co2    1 ZINC000008551192   -0.7100
62     H62     0.9273    1.7171    0.2410 H        1 ZINC000008551192    0.0500
63     H63    -0.6966    1.8597   -0.4738 H        1 ZINC000008551192    0.0600
64     H64    -0.5157    1.5492    1.2695 H        1 ZINC000008551192    0.0800
65     H65     0.0362   -0.7245    2.0879 H        1 ZINC000008551192    0.0800
66     H66     0.6331   -1.9505    0.9439 H        1 ZINC000008551192    0.0600
67     H67     1.6022   -0.4943    1.2737 H        1 ZINC000008551192    0.0500
68     H68    -2.0617   -0.1228   -0.9028 H        1 ZINC000008551192    0.0500
69     H69    -1.5712   -1.7147   -0.2755 H        1 ZINC000008551192    0.0500
70     H70    -7.3362    2.1185    4.7976 H        1 ZINC000008551192    0.0600
71     H71    -7.1569    0.7770    5.9537 H        1 ZINC000008551192    0.1000
72     H72    -6.4312    5.7695    4.3559 H        1 ZINC000008551192    0.2300
73     H73    -5.4912   10.5036    4.5864 H        1 ZINC000008551192    0.4200
74     H74    -4.8786   11.5629    5.7376 H        1 ZINC000008551192    0.4000
75     H75    -3.9887    9.0381    9.4294 H        1 ZINC000008551192    0.2000
76     H76    -6.5780    5.6946    9.3069 H        1 ZINC000008551192    0.3500
77     H77    -0.1335   -2.3166   -1.5195 H        1 ZINC000008551192    0.3900
78     H78     0.2500    2.0677   -1.9666 H        1 ZINC000008551192    0.4000
79     H79    -0.7064    1.7378   -4.6035 H        1 ZINC000008551192    0.0700
80     H80    -2.1021    1.7576   -3.4990 H        1 ZINC000008551192    0.0900
81     H81    -1.3490    3.9367   -2.5864 H        1 ZINC000008551192    0.1100
82     H82     0.0467    3.9170   -3.6909 H        1 ZINC000008551192    0.1000
83     H83    -1.4348    6.1170   -4.1681 H        1 ZINC000008551192    0.4000
84     H84    -2.3912    5.7871   -6.8050 H        1 ZINC000008551192    0.0800
85     H85    -3.7869    5.8069   -5.7005 H        1 ZINC000008551192    0.0800
86     H86    -3.0338    7.9860   -4.7879 H        1 ZINC000008551192    0.1000
87     H87    -1.6381    7.9663   -5.8924 H        1 ZINC000008551192    0.1000
88     H88    -3.7900   10.9398   -8.6650 H        1 ZINC000008551192    0.1000
89     H89    -5.1857   10.9596   -7.5605 H        1 ZINC000008551192    0.1000
90     H90    -4.0191   12.6027   -6.1157 H        1 ZINC000008551192    0.0700
91     H91    -2.6234   12.5829   -7.2201 H        1 ZINC000008551192    0.0700
92     H92    -4.0713   13.3901   -9.0642 H        1 ZINC000008551192    0.0600
93     H93    -5.4670   13.4099   -7.9598 H        1 ZINC000008551192    0.0600
@<TRIPOS>BOND
1     1     2     1
2     1     62    1
3     1     63    1
4     1     64    1
5     2     3     1
6     2     4     1
7     2     40    1
8     3     65    1
9     3     66    1
10    3     67    1
11    4     5     1
12    4     68    1
13    4     69    1
14    5     6     1
15    6     7     ar
16    6     8     ar
17    6     9     1
18    9     10    1
19    10    11    ar
20    10    12    ar
21    10    13    1
22    13    14    1
23    14    15    1
24    14    70    1
25    14    71    1
26    15    16    1
27    15    33    1
28    15    17    1
29    17    18    1
30    18    19    1
31    18    20    1
32    18    30    1
33    20    29    1
34    20    21    1
35    21    22    2
36    21    72    1
37    22    23    1
38    23    29    ar
39    23    24    ar
40    24    25    1
41    24    26    ar
42    25    73    1
43    25    74    1
44    26    27    ar
45    27    28    ar
46    27    75    1
47    28    29    ar
48    30    31    1
49    30    32    1
50    30    33    1
51    32    76    1
52    33    34    1
53    33    35    1
54    35    36    1
55    36    37    ar
56    36    38    ar
57    36    39    ar
58    40    41    1
59    40    42    1
60    40    43    1
61    42    77    1
62    43    44    2
63    43    45    am
64    45    46    1
65    45    78    1
66    46    47    1
67    46    79    1
68    46    80    1
69    47    48    1
70    47    81    1
71    47    82    1
72    48    49    2
73    48    50    am
74    50    51    1
75    50    83    1
76    51    52    1
77    51    84    1
78    51    85    1
79    52    53    1
80    52    86    1
81    52    87    1
82    53    54    1
83    54    55    2
84    54    56    1
85    56    57    1
86    56    88    1
87    56    89    1
88    57    58    1
89    57    90    1
90    57    91    1
91    58    59    1
92    58    92    1
93    58    93    1
94    59    60    ar
95    59    61    ar
@<TRIPOS>SUBSTRUCTURE
1   ZINC000008551192 1     RESIDUE    1   A     ZIN   1
@<TRIPOS>MOLECULE
ZINC000096014541
96    98    1     0     0
SMALL
USER_CHARGES
@<TRIPOS>ATOM
1      C1      8.9862  -13.4870   19.1498 C.3      1 ZINC000096014541   -0.1500
2      C2      8.4176  -14.0148   17.8310 C.3      1 ZINC000096014541   -0.1200
3      C3      7.9742  -12.8379   16.9596 C.3      1 ZINC000096014541   -0.1700
4      C4      7.4141  -13.3577   15.6607 C.2      1 ZINC000096014541    0.3500
5      O5      7.3737  -14.5467   15.4533 O.2      1 ZINC000096014541   -0.4100
6      C6      6.9043  -12.3937   14.6205 C.3      1 ZINC000096014541   -0.2000
7      C7      6.4021  -13.1630   13.4259 C.2      1 ZINC000096014541    0.3200
8      O8      6.4531  -14.3752   13.4198 O.2      1 ZINC000096014541   -0.4100
9      S9      5.7597  -12.3264   12.0775 S.3      1 ZINC000096014541   -0.1200
10     C10     5.3420  -13.7264   11.0089 C.3      1 ZINC000096014541   -0.1200
11     C11     4.7333  -13.2084    9.7043 C.3      1 ZINC000096014541    0.1400
12     N12     4.3953  -14.3415    8.8394 N.am     1 ZINC000096014541   -0.7300
13     C13     3.8425  -14.1243    7.6295 C.2      1 ZINC000096014541    0.5200
14     O14     3.6249  -12.9909    7.2568 O.2      1 ZINC000096014541   -0.5300
15     C15     3.4948  -15.2899    6.7399 C.3      1 ZINC000096014541   -0.1500
16     C16     2.8861  -14.7719    5.4352 C.3      1 ZINC000096014541    0.1400
17     N17     2.5481  -15.9050    4.5703 N.am     1 ZINC000096014541   -0.7400
18     C18     1.9953  -15.6879    3.3605 C.2      1 ZINC000096014541    0.5000
19     O19     1.6920  -14.5624    3.0255 O.2      1 ZINC000096014541   -0.5300
20     C20     1.7540  -16.8436    2.4239 C.3      1 ZINC000096014541    0.1000
21     H21     0.7370  -16.7903    2.0355 H        1 ZINC000096014541    0.1400
22     O22     1.9305  -18.0736    3.1297 O.3      1 ZINC000096014541   -0.5500
23     C23     2.7478  -16.7750    1.2626 C.3      1 ZINC000096014541   -0.0900
24     C24     2.4614  -15.5310    0.4192 C.3      1 ZINC000096014541   -0.1400
25     C25     4.1728  -16.6999    1.8145 C.3      1 ZINC000096014541   -0.1400
26     C26     2.6029  -18.0253    0.3928 C.3      1 ZINC000096014541    0.1500
27     O27     3.5311  -17.9612   -0.6919 O.3      1 ZINC000096014541   -0.7700
28     P28     3.6549  -19.1136   -1.8093 P.3      1 ZINC000096014541    2.2900
29     O29     3.9066  -20.4736   -1.1208 O.co2    1 ZINC000096014541   -1.1000
30     O30     2.3443  -19.1837   -2.6243 O.co2    1 ZINC000096014541   -1.1100
31     O31     4.8824  -18.7758   -2.7949 O.3      1 ZINC000096014541   -1.0900
32     P32     5.7104  -19.6267   -3.8823 P.3      1 ZINC000096014541    2.2900
33     O33     5.9524  -21.0543   -3.3434 O.co2    1 ZINC000096014541   -1.1000
34     O34     4.9050  -19.7027   -5.1986 O.co2    1 ZINC000096014541   -1.1000
35     O35     7.1255  -18.9107   -4.1596 O.3      1 ZINC000096014541   -0.7700
36     C36     8.1332  -19.4775   -4.9994 C.3      1 ZINC000096014541    0.1400
37     C37     9.3440  -18.5433   -5.0449 C.3      1 ZINC000096014541    0.0700
38     H38     9.0382  -17.5414   -5.3460 H        1 ZINC000096014541    0.1000
39     O39     9.9973  -18.5040   -3.7574 O.3      1 ZINC000096014541   -0.3500
40     C40    11.3367  -18.0346   -4.0246 C.3      1 ZINC000096014541    0.2600
41     H41    11.3383  -16.9543   -4.1701 H        1 ZINC000096014541    0.1200
42     N42    12.2343  -18.4015   -2.9264 N.pl3    1 ZINC000096014541   -0.4500
43     C43    12.0563  -19.4289   -2.0482 C.2      1 ZINC000096014541    0.2900
44     N44    13.0449  -19.4674   -1.2028 N.2      1 ZINC000096014541   -0.4800
45     C45    13.9177  -18.4702   -1.4838 C.ar     1 ZINC000096014541   -0.1000
46     C46    15.1317  -18.0335   -0.9273 C.ar     1 ZINC000096014541    0.5000
47     N47    15.6827  -18.6797    0.1655 N.pl3    1 ZINC000096014541   -0.8300
48     N48    15.7389  -16.9857   -1.4750 N.ar     1 ZINC000096014541   -0.6000
49     C49    15.2208  -16.3633   -2.5180 C.ar     1 ZINC000096014541    0.3400
50     N50    14.0864  -16.7366   -3.0719 N.ar     1 ZINC000096014541   -0.5400
51     C51    13.4111  -17.7780   -2.5968 C.ar     1 ZINC000096014541    0.2900
52     C52    11.7544  -18.7533   -5.3267 C.3      1 ZINC000096014541    0.0600
53     H53    12.3103  -19.6629   -5.0994 H        1 ZINC000096014541    0.0700
54     O54    12.5342  -17.8840   -6.1503 O.3      1 ZINC000096014541   -0.5000
55     C55    10.4121  -19.0941   -6.0156 C.3      1 ZINC000096014541    0.1500
56     H56    10.3037  -20.1728   -6.1284 H        1 ZINC000096014541    0.0800
57     O57    10.3234  -18.4477   -7.2869 O.3      1 ZINC000096014541   -0.7200
58     P58    10.1214  -19.2515   -8.6672 P.3      1 ZINC000096014541    2.1200
59     O59    11.2498  -20.3282   -8.8144 O.co2    1 ZINC000096014541   -1.1900
60     O60     8.7231  -19.9581   -8.6602 O.co2    1 ZINC000096014541   -1.1700
61     O61    10.1946  -18.2504   -9.8701 O.co2    1 ZINC000096014541   -1.1700
62     H62     8.2196  -12.9159   19.6733 H        1 ZINC000096014541    0.0500
63     H63     9.3021  -14.3254   19.7706 H        1 ZINC000096014541    0.0600
64     H64     9.8421  -12.8439   18.9449 H        1 ZINC000096014541    0.0600
65     H65     9.1842  -14.5860   17.3075 H        1 ZINC000096014541    0.0700
66     H66     7.5617  -14.6579   18.0359 H        1 ZINC000096014541    0.0700
67     H67     7.2075  -12.2667   17.4831 H        1 ZINC000096014541    0.1000
68     H68     8.8300  -12.1948   16.7547 H        1 ZINC000096014541    0.1000
69     H69     6.0904  -11.8029   15.0406 H        1 ZINC000096014541    0.1400
70     H70     7.7129  -11.7309   14.3122 H        1 ZINC000096014541    0.1400
71     H71     6.2443  -14.2964   10.7877 H        1 ZINC000096014541    0.1100
72     H72     4.6218  -14.3684   11.5161 H        1 ZINC000096014541    0.1000
73     H73     3.8310  -12.6383    9.9255 H        1 ZINC000096014541    0.0800
74     H74     5.4535  -12.5663    9.1971 H        1 ZINC000096014541    0.0800
75     H75     4.5693  -15.2480    9.1375 H        1 ZINC000096014541    0.4000
76     H76     4.3971  -15.8600    6.5186 H        1 ZINC000096014541    0.1100
77     H77     2.7746  -15.9320    7.2470 H        1 ZINC000096014541    0.1000
78     H78     1.9838  -14.2018    5.6565 H        1 ZINC000096014541    0.0700
79     H79     3.6063  -14.1299    4.9280 H        1 ZINC000096014541    0.0800
80     H80     2.7221  -16.8115    4.8684 H        1 ZINC000096014541    0.4000
81     H81     2.8148  -18.1891    3.5037 H        1 ZINC000096014541    0.3700
82     H82     2.6402  -14.6374    1.0173 H        1 ZINC000096014541    0.0600
83     H83     3.1177  -15.5230   -0.4511 H        1 ZINC000096014541    0.0800
84     H84     1.4223  -15.5462    0.0904 H        1 ZINC000096014541    0.0500
85     H85     4.3768  -17.5862    2.4154 H        1 ZINC000096014541    0.0500
86     H86     4.8808  -16.6510    0.9872 H        1 ZINC000096014541    0.0800
87     H87     4.2760  -15.8092    2.4342 H        1 ZINC000096014541    0.0400
88     H88     2.8070  -18.9115    0.9936 H        1 ZINC000096014541    0.0600
89     H89     1.5877  -18.0787   -0.0004 H        1 ZINC000096014541    0.0500
90     H90     8.4360  -20.4457   -4.6008 H        1 ZINC000096014541    0.0600
91     H91     7.7363  -19.6072   -6.0063 H        1 ZINC000096014541    0.1000
92     H92    11.2181  -20.1099   -2.0529 H        1 ZINC000096014541    0.2300
93     H93    15.2302  -19.4436    0.5561 H        1 ZINC000096014541    0.4200
94     H94    16.5214  -18.3687    0.5407 H        1 ZINC000096014541    0.4000
95     H95    15.7472  -15.5160   -2.9319 H        1 ZINC000096014541    0.2000
96     H96    13.3601  -17.5910   -5.7415 H        1 ZINC000096014541    0.3500
@<TRIPOS>BOND
1     1     2     1
2     1     62    1
3     1     63    1
4     1     64    1
5     2     3     1
6     2     65    1
7     2     66    1
8     3     4     1
9     3     67    1
10    3     68    1
11    4     5     2
12    4     6     1
13    6     7     1
14    6     69    1
15    6     70    1
16    7     8     2
17    7     9     1
18    9     10    1
19    10    11    1
20    10    71    1
21    10    72    1
22    11    12    1
23    11    73    1
24    11    74    1
25    12    13    am
26    12    75    1
27    13    14    2
28    13    15    1
29    15    16    1
30    15    76    1
31    15    77    1
32    16    17    1
33    16    78    1
34    16    79    1
35    17    18    am
36    17    80    1
37    18    19    2
38    18    20    1
39    20    21    1
40    20    22    1
41    20    23    1
42    22    81    1
43    23    24    1
44    23    25    1
45    23    26    1
46    24    82    1
47    24    83    1
48    24    84    1
49    25    85    1
50    25    86    1
51    25    87    1
52    26    27    1
53    26    88    1
54    26    89    1
55    27    28    1
56    28    29    ar
57    28    30    ar
58    28    31    1
59    31    32    1
60    32    33    ar
61    32    34    ar
62    32    35    1
63    35    36    1
64    36    37    1
65    36    90    1
66    36    91    1
67    37    38    1
68    37    55    1
69    37    39    1
70    39    40    1
71    40    41    1
72    40    42    1
73    40    52    1
74    42    51    1
75    42    43    1
76    43    44    2
77    43    92    1
78    44    45    1
79    45    51    ar
80    45    46    ar
81    46    47    1
82    46    48    ar
83    47    93    1
84    47    94    1
85    48    49    ar
86    49    50    ar
87    49    95    1
88    50    51    ar
89    52    53    1
90    52    54    1
91    52    55    1
92    54    96    1
93    55    56    1
94    55    57    1
95    57    58    1
96    58    59    ar
97    58    60    ar
98    58    61    ar
@<TRIPOS>SUBSTRUCTURE
1   ZINC000096014541 1     RESIDUE    1   A     ZIN   1

@<TRIPOS>MOLECULE
ZINC000096014541
96    98    1     0     0
SMALL
USER_CHARGES
@<TRIPOS>ATOM
1      C1    -14.4448   -5.4906  -12.5886 C.3      1 ZINC000096014541   -0.1500
2      C2    -13.3367   -6.4046  -12.0616 C.3      1 ZINC000096014541   -0.1200
3      C3    -13.8077   -7.0883  -10.7765 C.3      1 ZINC000096014541   -0.0900
4      C4    -12.7163   -7.9886  -10.2574 C.2      1 ZINC000096014541    0.2500
5      O5    -12.5979   -9.2462  -10.7297 O.3      1 ZINC000096014541   -0.4800
6      C6    -11.8611   -7.5382   -9.3238 C.2      1 ZINC000096014541   -0.3900
7      C7    -10.9418   -8.4302   -8.7148 C.2      1 ZINC000096014541    0.4000
8      O8    -10.9932   -9.6212   -8.9636 O.2      1 ZINC000096014541   -0.4900
9      S9     -9.7255   -7.8151   -7.5982 S.3      1 ZINC000096014541   -0.1400
10     C10    -8.8849   -9.3591   -7.1674 C.3      1 ZINC000096014541   -0.1100
11     C11    -7.7551   -9.0659   -6.1783 C.3      1 ZINC000096014541    0.1300
12     N12    -7.0747  -10.3156   -5.8296 N.am     1 ZINC000096014541   -0.7300
13     C13    -6.0392  -10.3012   -4.9671 C.2      1 ZINC000096014541    0.5200
14     O14    -5.6705   -9.2536   -4.4796 O.2      1 ZINC000096014541   -0.5300
15     C15    -5.3393  -11.5867   -4.6084 C.3      1 ZINC000096014541   -0.1500
16     C16    -4.2094  -11.2935   -3.6193 C.3      1 ZINC000096014541    0.1400
17     N17    -3.5291  -12.5432   -3.2706 N.am     1 ZINC000096014541   -0.7400
18     C18    -2.4936  -12.5288   -2.4081 C.2      1 ZINC000096014541    0.5000
19     O19    -2.0674  -11.4731   -1.9898 O.2      1 ZINC000096014541   -0.5200
20     C20    -1.8651  -13.8243   -1.9635 C.3      1 ZINC000096014541    0.1000
21     H21    -0.7824  -13.7583   -2.0701 H        1 ZINC000096014541    0.1400
22     O22    -2.3588  -14.8950   -2.7710 O.3      1 ZINC000096014541   -0.5500
23     C23    -2.2184  -14.0860   -0.4981 C.3      1 ZINC000096014541   -0.0900
24     C24    -1.8305  -12.8696    0.3451 C.3      1 ZINC000096014541   -0.1400
25     C25    -3.7228  -14.3347   -0.3727 C.3      1 ZINC000096014541   -0.1500
26     C26    -1.4551  -15.3154   -0.0011 C.3      1 ZINC000096014541    0.1500
27     O27    -1.7851  -15.5598    1.3676 O.3      1 ZINC000096014541   -0.7600
28     P28    -1.1629  -16.7789    2.2154 P.3      1 ZINC000096014541    2.2900
29     O29    -1.4278  -18.1089    1.4753 O.co2    1 ZINC000096014541   -1.1000
30     O30     0.3601  -16.5719    2.3733 O.co2    1 ZINC000096014541   -1.1100
31     O31    -1.8515  -16.8276    3.6699 O.3      1 ZINC000096014541   -1.0900
32     P32    -1.9145  -17.9306    4.8411 P.3      1 ZINC000096014541    2.2900
33     O33    -2.0903  -19.3335    4.2183 O.co2    1 ZINC000096014541   -1.1000
34     O34    -0.6036  -17.8901    5.6577 O.co2    1 ZINC000096014541   -1.1000
35     O35    -3.1605  -17.6136    5.8102 O.3      1 ZINC000096014541   -0.7700
36     C36    -3.5473  -18.4708    6.8862 C.3      1 ZINC000096014541    0.1400
37     C37    -4.7628  -17.8762    7.6002 C.3      1 ZINC000096014541    0.0700
38     H38    -4.5560  -16.8522    7.9111 H        1 ZINC000096014541    0.1000
39     O39    -5.9212  -17.9158    6.7385 O.3      1 ZINC000096014541   -0.3500
40     C40    -7.0578  -17.8173    7.6241 C.3      1 ZINC000096014541    0.2600
41     H41    -7.2041  -16.7845    7.9402 H        1 ZINC000096014541    0.1200
42     N42    -8.2639  -18.3233    6.9641 N.pl3    1 ZINC000096014541   -0.4500
43     C43    -8.3056  -19.2114    5.9307 C.2      1 ZINC000096014541    0.2900
44     N44    -9.5407  -19.4403    5.5907 N.2      1 ZINC000096014541   -0.4800
45     C45   -10.3679  -18.7158    6.3820 C.ar     1 ZINC000096014541   -0.1000
46     C46   -11.7613  -18.5619    6.4762 C.ar     1 ZINC000096014541    0.5000
47     N47   -12.6089  -19.2507    5.6263 N.pl3    1 ZINC000096014541   -0.8300
48     N48   -12.2466  -17.7396    7.4009 N.ar     1 ZINC000096014541   -0.6000
49     C49   -11.4455  -17.0787    8.2164 C.ar     1 ZINC000096014541    0.3400
50     N50   -10.1349  -17.1912    8.1645 N.ar     1 ZINC000096014541   -0.5400
51     C51    -9.5588  -17.9949    7.2767 C.ar     1 ZINC000096014541    0.2900
52     C52    -6.6924  -18.7039    8.8352 C.3      1 ZINC000096014541    0.0600
53     H53    -7.1015  -19.7066    8.7118 H        1 ZINC000096014541    0.0700
54     O54    -7.1683  -18.1161   10.0477 O.3      1 ZINC000096014541   -0.5000
55     C55    -5.1461  -18.7419    8.8209 C.3      1 ZINC000096014541    0.1500
56     H56    -4.7904  -19.7638    8.6895 H        1 ZINC000096014541    0.0800
57     O57    -4.6203  -18.1810   10.0254 O.3      1 ZINC000096014541   -0.7200
58     P58    -3.6636  -18.9993   11.0291 P.3      1 ZINC000096014541    2.1200
59     O59    -4.3691  -20.3325   11.4524 O.co2    1 ZINC000096014541   -1.1900
60     O60    -2.3119  -19.3295   10.3091 O.co2    1 ZINC000096014541   -1.1700
61     O61    -3.3788  -18.1320   12.3024 O.co2    1 ZINC000096014541   -1.1700
62     H62   -15.3356   -6.0830  -12.7977 H        1 ZINC000096014541    0.0600
63     H63   -14.6789   -4.7343  -11.8394 H        1 ZINC000096014541    0.0600
64     H64   -14.1092   -5.0035  -13.5041 H        1 ZINC000096014541    0.0600
65     H65   -13.1026   -7.1609  -12.8107 H        1 ZINC000096014541    0.0700
66     H66   -12.4459   -5.8123  -11.8525 H        1 ZINC000096014541    0.0700
67     H67   -14.0419   -6.3320  -10.0273 H        1 ZINC000096014541    0.1000
68     H68   -14.6985   -7.6807  -10.9855 H        1 ZINC000096014541    0.1000
69     H69   -11.8251   -9.7519  -10.4430 H        1 ZINC000096014541    0.4200
70     H70   -11.8737   -6.4970   -9.0373 H        1 ZINC000096014541    0.1500
71     H71    -9.5979  -10.0459   -6.7113 H        1 ZINC000096014541    0.1000
72     H72    -8.4707   -9.8110   -8.0687 H        1 ZINC000096014541    0.1000
73     H73    -7.0421   -8.3791   -6.6344 H        1 ZINC000096014541    0.0800
74     H74    -8.1693   -8.6140   -5.2770 H        1 ZINC000096014541    0.0800
75     H75    -7.3695  -11.1534   -6.2195 H        1 ZINC000096014541    0.4000
76     H76    -6.0523  -12.2735   -4.1524 H        1 ZINC000096014541    0.1100
77     H77    -4.9251  -12.0386   -5.5097 H        1 ZINC000096014541    0.1000
78     H78    -3.4964  -10.6067   -4.0754 H        1 ZINC000096014541    0.0700
79     H79    -4.6237  -10.8416   -2.7181 H        1 ZINC000096014541    0.0800
80     H80    -3.8239  -13.3810   -3.6605 H        1 ZINC000096014541    0.4000
81     H81    -3.3175  -15.0124   -2.7252 H        1 ZINC000096014541    0.3700
82     H82    -2.4246  -12.0094    0.0367 H        1 ZINC000096014541    0.0600
83     H83    -2.0181  -13.0823    1.3976 H        1 ZINC000096014541    0.0700
84     H84    -0.7724  -12.6506    0.2017 H        1 ZINC000096014541    0.0600
85     H85    -3.9992  -15.2012   -0.9734 H        1 ZINC000096014541    0.0600
86     H86    -3.9745  -14.5211    0.6714 H        1 ZINC000096014541    0.0800
87     H87    -4.2666  -13.4588   -0.7267 H        1 ZINC000096014541    0.0400
88     H88    -1.7315  -16.1819   -0.6018 H        1 ZINC000096014541    0.0600
89     H89    -0.3833  -15.1382   -0.0905 H        1 ZINC000096014541    0.0500
90     H90    -3.8022  -19.4549    6.4931 H        1 ZINC000096014541    0.0600
91     H91    -2.7213  -18.5640    7.5913 H        1 ZINC000096014541    0.1000
92     H92    -7.4410  -19.6586    5.4627 H        1 ZINC000096014541    0.2300
93     H93   -12.2426  -19.8482    4.9557 H        1 ZINC000096014541    0.4200
94     H94   -13.5691  -19.1360    5.7012 H        1 ZINC000096014541    0.4000
95     H95   -11.8819  -16.4208    8.9534 H        1 ZINC000096014541    0.2000
96     H96    -8.1292  -18.0133   10.0842 H        1 ZINC000096014541    0.3500
@<TRIPOS>BOND
1     1     2     1
2     1     62    1
3     1     63    1
4     1     64    1
5     2     3     1
6     2     65    1
7     2     66    1
8     3     4     1
9     3     67    1
10    3     68    1
11    4     5     1
12    4     6     2
13    5     69    1
14    6     7     1
15    6     70    1
16    7     8     2
17    7     9     1
18    9     10    1
19    10    11    1
20    10    71    1
21    10    72    1
22    11    12    1
23    11    73    1
24    11    74    1
25    12    13    am
26    12    75    1
27    13    14    2
28    13    15    1
29    15    16    1
30    15    76    1
31    15    77    1
32    16    17    1
33    16    78    1
34    16    79    1
35    17    18    am
36    17    80    1
37    18    19    2
38    18    20    1
39    20    21    1
40    20    22    1
41    20    23    1
42    22    81    1
43    23    24    1
44    23    25    1
45    23    26    1
46    24    82    1
47    24    83    1
48    24    84    1
49    25    85    1
50    25    86    1
51    25    87    1
52    26    27    1
53    26    88    1
54    26    89    1
55    27    28    1
56    28    29    ar
57    28    30    ar
58    28    31    1
59    31    32    1
60    32    33    ar
61    32    34    ar
62    32    35    1
63    35    36    1
64    36    37    1
65    36    90    1
66    36    91    1
67    37    38    1
68    37    55    1
69    37    39    1
70    39    40    1
71    40    41    1
72    40    42    1
73    40    52    1
74    42    51    1
75    42    43    1
76    43    44    2
77    43    92    1
78    44    45    1
79    45    51    ar
80    45    46    ar
81    46    47    1
82    46    48    ar
83    47    93    1
84    47    94    1
85    48    49    ar
86    49    50    ar
87    49    95    1
88    50    51    ar
89    52    53    1
90    52    54    1
91    52    55    1
92    54    96    1
93    55    56    1
94    55    57    1
95    57    58    1
96    58    59    ar
97    58    60    ar
98    58    61    ar
@<TRIPOS>SUBSTRUCTURE
1   ZINC000096014541 1     RESIDUE    1   A     ZIN   1
@<TRIPOS>MOLECULE
ZINC000096061868
107   109   1     0     0
SMALL
USER_CHARGES
@<TRIPOS>ATOM
1      C1    -28.8158  -15.8841   -5.0114 C.3      1 ZINC000096061868   -0.1500
2      C2    -28.6938  -14.6588   -4.1033 C.3      1 ZINC000096061868   -0.1200
3      C3    -27.2159  -14.3167   -3.9041 C.3      1 ZINC000096061868   -0.1200
4      C4    -27.0939  -13.0914   -2.9960 C.3      1 ZINC000096061868   -0.1200
5      C5    -25.6160  -12.7493   -2.7968 C.3      1 ZINC000096061868   -0.1200
6      C6    -25.4940  -11.5240   -1.8887 C.3      1 ZINC000096061868   -0.0900
7      C7    -24.0384  -11.1871   -1.6925 C.2      1 ZINC000096061868   -0.1500
8      C8    -23.6009   -9.9845   -1.9725 C.2      1 ZINC000096061868   -0.1500
9      C9    -22.1452   -9.6476   -1.7763 C.3      1 ZINC000096061868   -0.1200
10     C10   -21.5753   -9.1125   -3.0647 C.2      1 ZINC000096061868    0.3300
11     O11   -22.2819   -9.0144   -4.0461 O.2      1 ZINC000096061868   -0.4400
12     S12   -19.9308   -8.6431   -3.1436 S.3      1 ZINC000096061868   -0.1200
13     C13   -19.8391   -8.1083   -4.8703 C.3      1 ZINC000096061868   -0.1200
14     C14   -18.4191   -7.6312   -5.1817 C.3      1 ZINC000096061868    0.1400
15     N15   -18.3449   -7.1983   -6.5794 N.am     1 ZINC000096061868   -0.7300
16     C16   -17.1827   -6.7351   -7.0805 C.2      1 ZINC000096061868    0.5200
17     O17   -16.1983   -6.6766   -6.3745 O.2      1 ZINC000096061868   -0.5300
18     C18   -17.1063   -6.2898   -8.5182 C.3      1 ZINC000096061868   -0.1500
19     C19   -15.6864   -5.8126   -8.8296 C.3      1 ZINC000096061868    0.1400
20     N20   -15.6122   -5.3798  -10.2272 N.am     1 ZINC000096061868   -0.7400
21     C21   -14.4500   -4.9165  -10.7284 C.2      1 ZINC000096061868    0.5000
22     O22   -13.4911   -4.7703  -10.0004 O.2      1 ZINC000096061868   -0.5300
23     C23   -14.3419   -4.5803  -12.1934 C.3      1 ZINC000096061868    0.1000
24     H24   -13.8850   -3.5973  -12.3079 H        1 ZINC000096061868    0.1400
25     O25   -15.6462   -4.5702  -12.7773 O.3      1 ZINC000096061868   -0.5500
26     C26   -13.4772   -5.6295  -12.8951 C.3      1 ZINC000096061868   -0.0900
27     C27   -12.0417   -5.5389  -12.3734 C.3      1 ZINC000096061868   -0.1400
28     C28   -14.0364   -7.0248  -12.6099 C.3      1 ZINC000096061868   -0.1400
29     C29   -13.4887   -5.3739  -14.4035 C.3      1 ZINC000096061868    0.1500
30     O30   -12.6811   -6.3539  -15.0589 O.3      1 ZINC000096061868   -0.7700
31     P31   -12.4661   -6.3886  -16.6541 P.3      1 ZINC000096061868    2.2900
32     O32   -13.8405   -6.4378  -17.3580 O.co2    1 ZINC000096061868   -1.1000
33     O33   -11.7049   -5.1198  -17.0989 O.co2    1 ZINC000096061868   -1.1100
34     O34   -11.6121   -7.6941  -17.0522 O.3      1 ZINC000096061868   -1.0900
35     P35   -11.3240   -8.4624  -18.4374 P.3      1 ZINC000096061868    2.2900
36     O36   -12.6162   -8.5010  -19.2834 O.co2    1 ZINC000096061868   -1.1000
37     O37   -10.2187   -7.7178  -19.2191 O.co2    1 ZINC000096061868   -1.1000
38     O38   -10.8410   -9.9665  -18.1264 O.3      1 ZINC000096061868   -0.7700
39     C39   -10.6068  -10.9359  -19.1498 C.3      1 ZINC000096061868    0.1400
40     C40   -10.1608  -12.2532  -18.5120 C.3      1 ZINC000096061868    0.0700
41     H41    -9.3008  -12.0877  -17.8630 H        1 ZINC000096061868    0.1000
42     O42   -11.2473  -12.8438  -17.7660 O.3      1 ZINC000096061868   -0.3500
43     C43   -10.9077  -14.2421  -17.6418 C.3      1 ZINC000096061868    0.2600
44     H44   -10.1616  -14.3834  -16.8599 H        1 ZINC000096061868    0.1200
45     N45   -12.1056  -15.0340  -17.3516 N.pl3    1 ZINC000096061868   -0.4500
46     C46   -13.3913  -14.6892  -17.6455 C.2      1 ZINC000096061868    0.2900
47     N47   -14.2044  -15.6239  -17.2472 N.2      1 ZINC000096061868   -0.4800
48     C48   -13.4944  -16.6251  -16.6739 C.ar     1 ZINC000096061868   -0.1000
49     C49   -13.8233  -17.8555  -16.0804 C.ar     1 ZINC000096061868    0.5000
50     N50   -15.1408  -18.2698  -15.9931 N.pl3    1 ZINC000096061868   -0.8300
51     N51   -12.8395  -18.6124  -15.6051 N.ar     1 ZINC000096061868   -0.6000
52     C52   -11.5796  -18.2254  -15.6845 C.ar     1 ZINC000096061868    0.3400
53     N53   -11.2248  -17.0816  -16.2312 N.ar     1 ZINC000096061868   -0.5400
54     C54   -12.1386  -16.2614  -16.7393 C.ar     1 ZINC000096061868    0.3000
55     C55   -10.3241  -14.6303  -19.0184 C.3      1 ZINC000096061868    0.0600
56     H56   -11.0986  -15.0586  -19.6546 H        1 ZINC000096061868    0.0700
57     O57    -9.2413  -15.5496  -18.8620 O.3      1 ZINC000096061868   -0.5000
58     C58    -9.8186  -13.2908  -19.6041 C.3      1 ZINC000096061868    0.1500
59     H59   -10.3439  -13.0562  -20.5299 H        1 ZINC000096061868    0.0800
60     O60    -8.4084  -13.3433  -19.8295 O.3      1 ZINC000096061868   -0.7200
61     P61    -7.7425  -13.1104  -21.2767 P.3      1 ZINC000096061868    2.1200
62     O62    -8.3764  -14.1038  -22.3092 O.co2    1 ZINC000096061868   -1.1900
63     O63    -8.0042  -11.6372  -21.7411 O.co2    1 ZINC000096061868   -1.1700
64     O64    -6.1990  -13.3637  -21.1882 O.co2    1 ZINC000096061868   -1.1700
65     H65   -29.8687  -16.1278   -5.1533 H        1 ZINC000096061868    0.0500
66     H66   -28.3596  -15.6674   -5.9773 H        1 ZINC000096061868    0.0600
67     H67   -28.3060  -16.7301   -4.5504 H        1 ZINC000096061868    0.0500
68     H68   -29.2036  -13.8128   -4.5642 H        1 ZINC000096061868    0.0600
69     H69   -29.1500  -14.8755   -3.1374 H        1 ZINC000096061868    0.0600
70     H70   -26.7061  -15.1627   -3.4431 H        1 ZINC000096061868    0.0600
71     H71   -26.7597  -14.1000   -4.8700 H        1 ZINC000096061868    0.0600
72     H72   -27.6037  -12.2454   -3.4570 H        1 ZINC000096061868    0.0600
73     H73   -27.5501  -13.3081   -2.0301 H        1 ZINC000096061868    0.0600
74     H74   -25.1062  -13.5953   -2.3358 H        1 ZINC000096061868    0.0600
75     H75   -25.1598  -12.5326   -3.7627 H        1 ZINC000096061868    0.0600
76     H76   -26.0039  -10.6780   -2.3497 H        1 ZINC000096061868    0.0700
77     H77   -25.9502  -11.7407   -0.9228 H        1 ZINC000096061868    0.0700
78     H78   -23.3558  -11.9371   -1.3210 H        1 ZINC000096061868    0.1100
79     H79   -24.2834   -9.2344   -2.3440 H        1 ZINC000096061868    0.1200
80     H80   -22.0489   -8.8932   -0.9954 H        1 ZINC000096061868    0.1100
81     H81   -21.6008  -10.5453   -1.4833 H        1 ZINC000096061868    0.1100
82     H82   -20.0932   -8.9433   -5.5233 H        1 ZINC000096061868    0.1000
83     H83   -20.5413   -7.2912   -5.0354 H        1 ZINC000096061868    0.1000
84     H84   -18.1650   -6.7962   -4.5288 H        1 ZINC000096061868    0.0800
85     H85   -17.7169   -8.4483   -5.0167 H        1 ZINC000096061868    0.0800
86     H86   -19.1322   -7.2451   -7.1440 H        1 ZINC000096061868    0.4000
87     H87   -17.3605   -7.1247   -9.1712 H        1 ZINC000096061868    0.1100
88     H88   -17.8086   -5.4726   -8.6833 H        1 ZINC000096061868    0.1000
89     H89   -15.4323   -4.9777   -8.1767 H        1 ZINC000096061868    0.0700
90     H90   -14.9841   -6.6298   -8.6645 H        1 ZINC000096061868    0.0800
91     H91   -16.3995   -5.4266  -10.7919 H        1 ZINC000096061868    0.4000
92     H92   -16.1129   -5.4146  -12.7120 H        1 ZINC000096061868    0.3700
93     H93   -12.0229   -5.7973  -11.3147 H        1 ZINC000096061868    0.0600
94     H94   -11.4092   -6.2322  -12.9279 H        1 ZINC000096061868    0.0800
95     H95   -11.6703   -4.5228  -12.5061 H        1 ZINC000096061868    0.0500
96     H96   -15.0590   -7.0893  -12.9815 H        1 ZINC000096061868    0.0500
97     H97   -13.4203   -7.7723  -13.1098 H        1 ZINC000096061868    0.0800
98     H98   -14.0282   -7.2069  -11.5353 H        1 ZINC000096061868    0.0400
99     H99   -14.5114   -5.4384  -14.7752 H        1 ZINC000096061868    0.0600
100    H100  -13.0904   -4.3799  -14.6067 H        1 ZINC000096061868    0.0500
101    H101  -11.5253  -11.0981  -19.7138 H        1 ZINC000096061868    0.0600
102    H102   -9.8274  -10.5749  -19.8208 H        1 ZINC000096061868    0.1000
103    H103  -13.6909  -13.7749  -18.1361 H        1 ZINC000096061868    0.2300
104    H104  -15.8500  -17.7087  -16.3439 H        1 ZINC000096061868    0.4200
105    H105  -15.3551  -19.1214  -15.5810 H        1 ZINC000096061868    0.4000
106    H106  -10.8113  -18.8712  -15.2855 H        1 ZINC000096061868    0.2000
107    H107   -9.4917  -16.3847  -18.4437 H        1 ZINC000096061868    0.3500
@<TRIPOS>BOND
1     1     2     1
2     1     65    1
3     1     66    1
4     1     67    1
5     2     3     1
6     2     68    1
7     2     69    1
8     3     4     1
9     3     70    1
10    3     71    1
11    4     5     1
12    4     72    1
13    4     73    1
14    5     6     1
15    5     74    1
16    5     75    1
17    6     7     1
18    6     76    1
19    6     77    1
20    7     8     2
21    7     78    1
22    8     9     1
23    8     79    1
24    9     10    1
25    9     80    1
26    9     81    1
27    10    11    2
28    10    12    1
29    12    13    1
30    13    14    1
31    13    82    1
32    13    83    1
33    14    15    1
34    14    84    1
35    14    85    1
36    15    16    am
37    15    86    1
38    16    17    2
39    16    18    1
40    18    19    1
41    18    87    1
42    18    88    1
43    19    20    1
44    19    89    1
45    19    90    1
46    20    21    am
47    20    91    1
48    21    22    2
49    21    23    1
50    23    24    1
51    23    25    1
52    23    26    1
53    25    92    1
54    26    27    1
55    26    28    1
56    26    29    1
57    27    93    1
58    27    94    1
59    27    95    1
60    28    96    1
61    28    97    1
62    28    98    1
63    29    30    1
64    29    99    1
65    29    100   1
66    30    31    1
67    31    32    ar
68    31    33    ar
69    31    34    1
70    34    35    1
71    35    36    ar
72    35    37    ar
73    35    38    1
74    38    39    1
75    39    40    1
76    39    101   1
77    39    102   1
78    40    41    1
79    40    58    1
80    40    42    1
81    42    43    1
82    43    44    1
83    43    45    1
84    43    55    1
85    45    54    1
86    45    46    1
87    46    47    2
88    46    103   1
89    47    48    1
90    48    54    ar
91    48    49    ar
92    49    50    1
93    49    51    ar
94    50    104   1
95    50    105   1
96    51    52    ar
97    52    53    ar
98    52    106   1
99    53    54    ar
100   55    56    1
101   55    57    1
102   55    58    1
103   57    107   1
104   58    59    1
105   58    60    1
106   60    61    1
107   61    62    ar
108   61    63    ar
109   61    64    ar
@<TRIPOS>SUBSTRUCTURE
1   ZINC000096061868 1     RESIDUE    1   A     ZIN   1
@<TRIPOS>MOLECULE
ZINC000008551971
94    97    1     0     0
SMALL
USER_CHARGES
@<TRIPOS>ATOM
1      C1     -0.0985    1.3509    0.2822 C.3      1 ZINC000008551971   -0.1500
2      C2     -0.1133   -0.1556    0.0155 C.3      1 ZINC000008551971   -0.1000
3      C3      0.5901   -0.8836    1.1627 C.3      1 ZINC000008551971   -0.1300
4      C4     -1.5606   -0.6414   -0.0855 C.3      1 ZINC000008551971    0.1400
5      O5     -2.2415   -0.3681    1.1407 O.3      1 ZINC000008551971   -0.7600
6      P6     -3.7866   -0.7464    1.3890 P.3      1 ZINC000008551971    2.2900
7      O7     -4.6557   -0.1184    0.2767 O.co2    1 ZINC000008551971   -1.1000
8      O8     -3.9509   -2.2825    1.3654 O.co2    1 ZINC000008551971   -1.1100
9      O9     -4.2548   -0.1785    2.8209 O.3      1 ZINC000008551971   -1.0900
10     P10    -5.6875    0.0547    3.5174 P.3      1 ZINC000008551971    2.2900
11     O11    -6.6844    0.6047    2.4731 O.co2    1 ZINC000008551971   -1.1000
12     O12    -6.2135   -1.2867    4.0750 O.co2    1 ZINC000008551971   -1.1000
13     O13    -5.5331    1.1127    4.7211 O.3      1 ZINC000008551971   -0.7700
14     C14    -6.6453    1.6085    5.4689 C.3      1 ZINC000008551971    0.1400
15     C15    -6.1483    2.5907    6.5316 C.3      1 ZINC000008551971    0.0700
16     H16    -5.3807    2.1241    7.1491 H        1 ZINC000008551971    0.1000
17     O17    -5.6334    3.7875    5.9084 O.3      1 ZINC000008551971   -0.3500
18     C18    -5.6655    4.7977    6.9401 C.3      1 ZINC000008551971    0.2600
19     H19    -4.8245    4.6707    7.6218 H        1 ZINC000008551971    0.1200
20     N20    -5.6403    6.1359    6.3445 N.pl3    1 ZINC000008551971   -0.4500
21     C21    -6.0404    6.4653    5.0836 C.2      1 ZINC000008551971    0.2900
22     N22    -5.8814    7.7417    4.8859 N.2      1 ZINC000008551971   -0.4800
23     C23    -5.3706    8.3110    6.0040 C.ar     1 ZINC000008551971   -0.1000
24     C24    -5.0011    9.6170    6.3675 C.ar     1 ZINC000008551971    0.5000
25     N25    -5.1372   10.6657    5.4748 N.pl3    1 ZINC000008551971   -0.8300
26     N26    -4.5183    9.8219    7.5887 N.ar     1 ZINC000008551971   -0.6000
27     C27    -4.3854    8.8274    8.4472 C.ar     1 ZINC000008551971    0.3400
28     N28    -4.7178    7.5886    8.1506 N.ar     1 ZINC000008551971   -0.5400
29     C29    -5.2153    7.2885    6.9554 C.ar     1 ZINC000008551971    0.2900
30     C30    -6.9997    4.5617    7.6821 C.3      1 ZINC000008551971    0.0600
31     H31    -7.7809    5.2049    7.2771 H        1 ZINC000008551971    0.0700
32     O32    -6.8406    4.7912    9.0836 O.3      1 ZINC000008551971   -0.5000
33     C33    -7.3241    3.0741    7.4091 C.3      1 ZINC000008551971    0.1500
34     H34    -8.2659    2.9817    6.8681 H        1 ZINC000008551971    0.0800
35     O35    -7.3778    2.3403    8.6341 O.3      1 ZINC000008551971   -0.7200
36     P36    -8.6839    1.5312    9.1151 P.3      1 ZINC000008551971    2.1200
37     O37    -9.9162    2.4982    9.1433 O.co2    1 ZINC000008551971   -1.1900
38     O38    -8.9658    0.3550    8.1193 O.co2    1 ZINC000008551971   -1.1700
39     O39    -8.4408    0.9530   10.5508 O.co2    1 ZINC000008551971   -1.1700
40     C40     0.6157   -0.4483   -1.2974 C.3      1 ZINC000008551971    0.1100
41     H41     1.6142   -0.0124   -1.2635 H        1 ZINC000008551971    0.1200
42     O42     0.7190   -1.8618   -1.4801 O.3      1 ZINC000008551971   -0.5400
43     C43    -0.1555    0.1515   -2.4448 C.2      1 ZINC000008551971    0.4900
44     O44    -0.7013   -0.5707   -3.2519 O.2      1 ZINC000008551971   -0.5200
45     N45    -0.2388    1.4905   -2.5740 N.am     1 ZINC000008551971   -0.7300
46     C46    -1.0675    2.0742   -3.6317 C.3      1 ZINC000008551971    0.1300
47     C47    -0.9878    3.6004   -3.5583 C.3      1 ZINC000008551971   -0.1500
48     C48    -1.8403    4.2008   -4.6463 C.2      1 ZINC000008551971    0.5200
49     O49    -2.4515    3.4791   -5.4056 O.2      1 ZINC000008551971   -0.5200
50     N50    -1.9236    5.5398   -4.7755 N.am     1 ZINC000008551971   -0.7300
51     C51    -2.7523    6.1235   -5.8332 C.3      1 ZINC000008551971    0.1400
52     C52    -2.6726    7.6497   -5.7598 C.3      1 ZINC000008551971   -0.1200
53     S53    -3.6965    8.3708   -7.0665 S.3      1 ZINC000008551971   -0.1300
54     C54    -3.4266   10.0842   -6.7562 C.2      1 ZINC000008551971    0.3900
55     O55    -2.7001   10.4299   -5.8443 O.2      1 ZINC000008551971   -0.4500
56     C56    -4.0831   11.1010   -7.6040 C.2      1 ZINC000008551971   -0.1600
57     C57    -3.8765   12.4100   -7.3753 C.2      1 ZINC000008551971   -0.0500
58     C58    -4.5513   13.4398   -8.2427 C.3      1 ZINC000008551971   -0.1000
59     C59    -4.6555   12.9245   -9.6773 C.3      1 ZINC000008551971   -0.0900
60     C60    -5.2470   11.5404   -9.6875 C.2      1 ZINC000008551971   -0.1500
61     C61    -4.9678   10.6870   -8.7144 C.2      1 ZINC000008551971   -0.1100
62     H62     0.9273    1.7171    0.2410 H        1 ZINC000008551971    0.0500
63     H63    -0.6966    1.8597   -0.4738 H        1 ZINC000008551971    0.0600
64     H64    -0.5157    1.5492    1.2695 H        1 ZINC000008551971    0.0800
65     H65     0.0362   -0.7245    2.0879 H        1 ZINC000008551971    0.0800
66     H66     0.6331   -1.9505    0.9439 H        1 ZINC000008551971    0.0600
67     H67     1.6022   -0.4943    1.2737 H        1 ZINC000008551971    0.0500
68     H68    -2.0617   -0.1228   -0.9028 H        1 ZINC000008551971    0.0500
69     H69    -1.5712   -1.7147   -0.2755 H        1 ZINC000008551971    0.0500
70     H70    -7.3362    2.1185    4.7976 H        1 ZINC000008551971    0.0600
71     H71    -7.1569    0.7770    5.9537 H        1 ZINC000008551971    0.1000
72     H72    -6.4312    5.7695    4.3559 H        1 ZINC000008551971    0.2300
73     H73    -5.4912   10.5036    4.5864 H        1 ZINC000008551971    0.4200
74     H74    -4.8786   11.5629    5.7376 H        1 ZINC000008551971    0.4000
75     H75    -3.9887    9.0381    9.4294 H        1 ZINC000008551971    0.2000
76     H76    -6.5780    5.6946    9.3069 H        1 ZINC000008551971    0.3500
77     H77    -0.1335   -2.3166   -1.5195 H        1 ZINC000008551971    0.3900
78     H78     0.2500    2.0677   -1.9666 H        1 ZINC000008551971    0.4000
79     H79    -0.7064    1.7378   -4.6035 H        1 ZINC000008551971    0.0700
80     H80    -2.1021    1.7576   -3.4990 H        1 ZINC000008551971    0.0900
81     H81    -1.3490    3.9367   -2.5864 H        1 ZINC000008551971    0.1100
82     H82     0.0467    3.9170   -3.6909 H        1 ZINC000008551971    0.1000
83     H83    -1.4348    6.1170   -4.1681 H        1 ZINC000008551971    0.4000
84     H84    -2.3912    5.7871   -6.8050 H        1 ZINC000008551971    0.0800
85     H85    -3.7869    5.8069   -5.7005 H        1 ZINC000008551971    0.0800
86     H86    -3.0338    7.9860   -4.7879 H        1 ZINC000008551971    0.1100
87     H87    -1.6381    7.9663   -5.8924 H        1 ZINC000008551971    0.1000
88     H88    -3.2277   12.7224   -6.5704 H        1 ZINC000008551971    0.1300
89     H89    -5.5508   13.6397   -7.8564 H        1 ZINC000008551971    0.0900
90     H90    -3.9690   14.3611   -8.2304 H        1 ZINC000008551971    0.0900
91     H91    -5.2917   13.5937  -10.2565 H        1 ZINC000008551971    0.0800
92     H92    -3.6618   12.8963  -10.1244 H        1 ZINC000008551971    0.0800
93     H93    -5.8985   11.2408  -10.4950 H        1 ZINC000008551971    0.1200
94     H94    -5.3913    9.6936   -8.7262 H        1 ZINC000008551971    0.1300
@<TRIPOS>BOND
1     1     2     1
2     1     62    1
3     1     63    1
4     1     64    1
5     2     3     1
6     2     4     1
7     2     40    1
8     3     65    1
9     3     66    1
10    3     67    1
11    4     5     1
12    4     68    1
13    4     69    1
14    5     6     1
15    6     7     ar
16    6     8     ar
17    6     9     1
18    9     10    1
19    10    11    ar
20    10    12    ar
21    10    13    1
22    13    14    1
23    14    15    1
24    14    70    1
25    14    71    1
26    15    16    1
27    15    33    1
28    15    17    1
29    17    18    1
30    18    19    1
31    18    20    1
32    18    30    1
33    20    29    1
34    20    21    1
35    21    22    2
36    21    72    1
37    22    23    1
38    23    29    ar
39    23    24    ar
40    24    25    1
41    24    26    ar
42    25    73    1
43    25    74    1
44    26    27    ar
45    27    28    ar
46    27    75    1
47    28    29    ar
48    30    31    1
49    30    32    1
50    30    33    1
51    32    76    1
52    33    34    1
53    33    35    1
54    35    36    1
55    36    37    ar
56    36    38    ar
57    36    39    ar
58    40    41    1
59    40    42    1
60    40    43    1
61    42    77    1
62    43    44    2
63    43    45    am
64    45    46    1
65    45    78    1
66    46    47    1
67    46    79    1
68    46    80    1
69    47    48    1
70    47    81    1
71    47    82    1
72    48    49    2
73    48    50    am
74    50    51    1
75    50    83    1
76    51    52    1
77    51    84    1
78    51    85    1
79    52    53    1
80    52    86    1
81    52    87    1
82    53    54    1
83    54    55    2
84    54    56    1
85    56    61    1
86    56    57    2
87    57    58    1
88    57    88    1
89    58    59    1
90    58    89    1
91    58    90    1
92    59    60    1
93    59    91    1
94    59    92    1
95    60    61    2
96    60    93    1
97    61    94    1
@<TRIPOS>SUBSTRUCTURE
1   ZINC000008551971 1     RESIDUE    1   A     ZIN   1
@<TRIPOS>MOLECULE
ZINC000008551196
91    93    1     0     0
SMALL
USER_CHARGES
@<TRIPOS>ATOM
1      C1    -17.5560   -9.8412   -1.8004 C.2      1 ZINC000008551196   -0.1600
2      C2    -17.4496   -8.5228   -1.9623 C.2      1 ZINC000008551196   -0.1700
3      C3    -16.1335   -7.8357   -1.7038 C.3      1 ZINC000008551196   -0.0900
4      C4    -15.3779   -7.6936   -2.9998 C.2      1 ZINC000008551196    0.3500
5      O5    -15.8606   -8.1096   -4.0323 O.2      1 ZINC000008551196   -0.4300
6      S6    -13.8381   -6.9453   -3.0154 S.3      1 ZINC000008551196   -0.1500
7      C7    -13.4489   -7.0637   -4.7791 C.3      1 ZINC000008551196   -0.1100
8      C8    -12.0766   -6.4402   -5.0415 C.3      1 ZINC000008551196    0.1400
9      N9    -11.7616   -6.5360   -6.4690 N.am     1 ZINC000008551196   -0.7300
10     C10   -10.5950   -6.0486   -6.9359 C.2      1 ZINC000008551196    0.5200
11     O11    -9.8060   -5.5306   -6.1742 O.2      1 ZINC000008551196   -0.5300
12     C12   -10.2710   -6.1472   -8.4043 C.3      1 ZINC000008551196   -0.1500
13     C13    -8.8986   -5.5237   -8.6667 C.3      1 ZINC000008551196    0.1400
14     N14    -8.5836   -5.6195  -10.0942 N.am     1 ZINC000008551196   -0.7300
15     C15    -7.4170   -5.1321  -10.5611 C.2      1 ZINC000008551196    0.5000
16     O16    -6.6698   -4.5319   -9.8179 O.2      1 ZINC000008551196   -0.5300
17     C17    -7.0411   -5.3328  -12.0066 C.3      1 ZINC000008551196    0.1000
18     H18    -6.7129   -4.3843  -12.4317 H        1 ZINC000008551196    0.1300
19     O19    -8.1753   -5.8125  -12.7315 O.3      1 ZINC000008551196   -0.5500
20     C20    -5.9059   -6.3542  -12.1013 C.3      1 ZINC000008551196   -0.0900
21     C21    -4.6456   -5.7775  -11.4532 C.3      1 ZINC000008551196   -0.1400
22     C22    -6.3123   -7.6372  -11.3734 C.3      1 ZINC000008551196   -0.1400
23     C23    -5.6247   -6.6693  -13.5718 C.3      1 ZINC000008551196    0.1500
24     O24    -4.5645   -7.6233  -13.6602 O.3      1 ZINC000008551196   -0.7700
25     P25    -4.0049   -8.1850  -15.0615 P.3      1 ZINC000008551196    2.2900
26     O26    -5.1724   -8.7770  -15.8822 O.co2    1 ZINC000008551196   -1.1000
27     O27    -3.3509   -7.0314  -15.8544 O.co2    1 ZINC000008551196   -1.1100
28     O28    -2.9102   -9.3318  -14.7812 O.3      1 ZINC000008551196   -1.0900
29     P29    -2.2226  -10.4680  -15.6914 P.3      1 ZINC000008551196    2.2900
30     O30    -3.2813  -11.0841  -16.6330 O.co2    1 ZINC000008551196   -1.1000
31     O31    -1.0895   -9.8386  -16.5321 O.co2    1 ZINC000008551196   -1.1000
32     O32    -1.6127  -11.6181  -14.7441 O.3      1 ZINC000008551196   -0.7700
33     C33    -1.0277  -12.8178  -15.2546 C.3      1 ZINC000008551196    0.1400
34     C34    -0.5508  -13.6882  -14.0902 C.3      1 ZINC000008551196    0.0700
35     H35     0.1154  -13.1202  -13.4408 H        1 ZINC000008551196    0.1000
36     O36    -1.6796  -14.1868  -13.3399 O.3      1 ZINC000008551196   -0.3500
37     C37    -1.1824  -15.3389  -12.6249 C.3      1 ZINC000008551196    0.2600
38     H38    -0.6120  -15.0257  -11.7504 H        1 ZINC000008551196    0.1200
39     N39    -2.2914  -16.2084  -12.2246 N.pl3    1 ZINC000008551196   -0.4500
40     C40    -3.5177  -16.2757  -12.8163 C.2      1 ZINC000008551196    0.2900
41     N41    -4.2586  -17.1539  -12.2051 N.2      1 ZINC000008551196   -0.4800
42     C42    -3.5570  -17.7044  -11.1854 C.ar     1 ZINC000008551196   -0.1000
43     C43    -3.8311  -18.6772  -10.2092 C.ar     1 ZINC000008551196    0.5000
44     N44    -5.0645  -19.3028  -10.1598 N.pl3    1 ZINC000008551196   -0.8300
45     N45    -2.8780  -18.9829   -9.3347 N.ar     1 ZINC000008551196   -0.6000
46     C46    -1.6981  -18.3915   -9.3746 C.ar     1 ZINC000008551196    0.3400
47     N47    -1.3970  -17.4749  -10.2703 N.ar     1 ZINC000008551196   -0.5400
48     C48    -2.2843  -17.1087  -11.1893 C.ar     1 ZINC000008551196    0.2900
49     C49    -0.2647  -16.0639  -13.6341 C.3      1 ZINC000008551196    0.0600
50     H50    -0.8142  -16.8476  -14.1555 H        1 ZINC000008551196    0.0700
51     O51     0.8762  -16.6111  -12.9700 O.3      1 ZINC000008551196   -0.5000
52     C52     0.1630  -14.9515  -14.6203 C.3      1 ZINC000008551196    0.1500
53     H53    -0.1759  -15.1849  -15.6296 H        1 ZINC000008551196    0.0800
54     O54     1.5815  -14.7798  -14.5969 O.3      1 ZINC000008551196   -0.7200
55     P55     2.5069  -14.9490  -15.9034 P.3      1 ZINC000008551196    2.1200
56     O56     2.2587  -16.3588  -16.5402 O.co2    1 ZINC000008551196   -1.1900
57     O57     2.1484  -13.8351  -16.9451 O.co2    1 ZINC000008551196   -1.1700
58     O58     4.0141  -14.8178  -15.4964 O.co2    1 ZINC000008551196   -1.1700
59     C59   -18.6136   -7.7403   -2.3923 C.2      1 ZINC000008551196    0.5200
60     O60   -19.6823   -8.2983   -2.6023 O.co2    1 ZINC000008551196   -0.6900
61     O61   -18.5159   -6.5296   -2.5410 O.co2    1 ZINC000008551196   -0.6900
62     H62   -18.4992  -10.3336   -1.9857 H        1 ZINC000008551196    0.1100
63     H63   -16.6979  -10.4179   -1.4881 H        1 ZINC000008551196    0.0800
64     H64   -16.3163   -6.8484   -1.2796 H        1 ZINC000008551196    0.1100
65     H65   -15.5454   -8.4288   -1.0034 H        1 ZINC000008551196    0.0900
66     H66   -13.4351   -8.1117   -5.0785 H        1 ZINC000008551196    0.1000
67     H67   -14.2060   -6.5313   -5.3548 H        1 ZINC000008551196    0.1000
68     H68   -12.0904   -5.3922   -4.7420 H        1 ZINC000008551196    0.0800
69     H69   -11.3195   -6.9726   -4.4658 H        1 ZINC000008551196    0.0800
70     H70   -12.3926   -6.9503   -7.0782 H        1 ZINC000008551196    0.4000
71     H71   -10.2571   -7.1951   -8.7038 H        1 ZINC000008551196    0.1100
72     H72   -11.0280   -5.6147   -8.9800 H        1 ZINC000008551196    0.1000
73     H73    -8.9124   -4.4757   -8.3672 H        1 ZINC000008551196    0.0700
74     H74    -8.1416   -6.0561   -8.0910 H        1 ZINC000008551196    0.0800
75     H75    -9.2146   -6.0338  -10.7034 H        1 ZINC000008551196    0.4000
76     H76    -8.5218   -6.6551  -12.4072 H        1 ZINC000008551196    0.3700
77     H77    -4.8216   -5.6257  -10.3883 H        1 ZINC000008551196    0.0600
78     H78    -3.8168   -6.4722  -11.5892 H        1 ZINC000008551196    0.0800
79     H79    -4.4007   -4.8237  -11.9206 H        1 ZINC000008551196    0.0500
80     H80    -7.2101   -8.0480  -11.8351 H        1 ZINC000008551196    0.0500
81     H81    -5.5035   -8.3648  -11.4409 H        1 ZINC000008551196    0.0800
82     H82    -6.5126   -7.4127  -10.3258 H        1 ZINC000008551196    0.0500
83     H83    -6.5226   -7.0801  -14.0335 H        1 ZINC000008551196    0.0600
84     H84    -5.3353   -5.7553  -14.0903 H        1 ZINC000008551196    0.0500
85     H85    -1.7695  -13.3645  -15.8369 H        1 ZINC000008551196    0.0600
86     H86    -0.1795  -12.5661  -15.8913 H        1 ZINC000008551196    0.1000
87     H87    -3.8287  -15.6867  -13.6664 H        1 ZINC000008551196    0.2300
88     H88    -5.7519  -19.0713  -10.8038 H        1 ZINC000008551196    0.4200
89     H89    -5.2417  -19.9728   -9.4811 H        1 ZINC000008551196    0.4000
90     H90    -0.9522  -18.6699   -8.6448 H        1 ZINC000008551196    0.2000
91     H91     0.6606  -17.2715  -12.2974 H        1 ZINC000008551196    0.3500
@<TRIPOS>BOND
1     1     2     2
2     1     62    1
3     1     63    1
4     2     3     1
5     2     59    1
6     3     4     1
7     3     64    1
8     3     65    1
9     4     5     2
10    4     6     1
11    6     7     1
12    7     8     1
13    7     66    1
14    7     67    1
15    8     9     1
16    8     68    1
17    8     69    1
18    9     10    am
19    9     70    1
20    10    11    2
21    10    12    1
22    12    13    1
23    12    71    1
24    12    72    1
25    13    14    1
26    13    73    1
27    13    74    1
28    14    15    am
29    14    75    1
30    15    16    2
31    15    17    1
32    17    18    1
33    17    19    1
34    17    20    1
35    19    76    1
36    20    21    1
37    20    22    1
38    20    23    1
39    21    77    1
40    21    78    1
41    21    79    1
42    22    80    1
43    22    81    1
44    22    82    1
45    23    24    1
46    23    83    1
47    23    84    1
48    24    25    1
49    25    26    ar
50    25    27    ar
51    25    28    1
52    28    29    1
53    29    30    ar
54    29    31    ar
55    29    32    1
56    32    33    1
57    33    34    1
58    33    85    1
59    33    86    1
60    34    35    1
61    34    52    1
62    34    36    1
63    36    37    1
64    37    38    1
65    37    39    1
66    37    49    1
67    39    48    1
68    39    40    1
69    40    41    2
70    40    87    1
71    41    42    1
72    42    48    ar
73    42    43    ar
74    43    44    1
75    43    45    ar
76    44    88    1
77    44    89    1
78    45    46    ar
79    46    47    ar
80    46    90    1
81    47    48    ar
82    49    50    1
83    49    51    1
84    49    52    1
85    51    91    1
86    52    53    1
87    52    54    1
88    54    55    1
89    55    56    ar
90    55    57    ar
91    55    58    ar
92    59    60    ar
93    59    61    ar
@<TRIPOS>SUBSTRUCTURE
1   ZINC000008551196 1     RESIDUE    1   A     ZIN   1
@<TRIPOS>MOLECULE
ZINC000008551209
91    93    1     0     0
SMALL
USER_CHARGES
@<TRIPOS>ATOM
1      C1     -8.4226    2.2374   13.6177 C.3      1 ZINC000008551209   -0.1400
2      C2     -7.4558    3.1168   14.4132 C.3      1 ZINC000008551209   -0.1200
3      C3     -8.0404    3.3924   15.7999 C.3      1 ZINC000008551209   -0.1400
4      C4     -6.1340    2.4074   14.5571 C.2      1 ZINC000008551209    0.3300
5      O5     -5.7020    2.1477   15.6607 O.2      1 ZINC000008551209   -0.4500
6      S6     -5.2421    1.9679   13.1635 S.3      1 ZINC000008551209   -0.1200
7      C7     -3.8093    1.1824   13.9420 C.3      1 ZINC000008551209   -0.1200
8      C8     -2.8438    0.6955   12.8596 C.3      1 ZINC000008551209    0.1400
9      N9     -1.6841    0.0598   13.4898 N.am     1 ZINC000008551209   -0.7300
10     C10    -0.6961   -0.4476   12.7263 C.2      1 ZINC000008551209    0.5200
11     O11    -0.7671   -0.3779   11.5175 O.2      1 ZINC000008551209   -0.5300
12     C12     0.4969   -1.1016   13.3745 C.3      1 ZINC000008551209   -0.1500
13     C13     1.4624   -1.5885   12.2921 C.3      1 ZINC000008551209    0.1400
14     N14     2.6221   -2.2242   12.9222 N.am     1 ZINC000008551209   -0.7400
15     C15     3.6101   -2.7316   12.1587 C.2      1 ZINC000008551209    0.5000
16     O16     3.4969   -2.7459   10.9513 O.2      1 ZINC000008551209   -0.5300
17     C17     4.8554   -3.2812   12.8054 C.3      1 ZINC000008551209    0.1000
18     H18     5.0827   -4.2599   12.3827 H        1 ZINC000008551209    0.1400
19     O19     4.6451   -3.4075   14.2132 O.3      1 ZINC000008551209   -0.5500
20     C20     6.0260   -2.3302   12.5478 C.3      1 ZINC000008551209   -0.0900
21     C21     6.3469   -2.3098   11.0520 C.3      1 ZINC000008551209   -0.1400
22     C22     5.6485   -0.9206   13.0077 C.3      1 ZINC000008551209   -0.1400
23     C23     7.2530   -2.8091   13.3262 C.3      1 ZINC000008551209    0.1500
24     O24     8.3463   -1.9209   13.0857 O.3      1 ZINC000008551209   -0.7700
25     P25     9.8004   -2.1210   13.7471 P.3      1 ZINC000008551209    2.3000
26     O26     9.6600   -2.2081   15.2832 O.co2    1 ZINC000008551209   -1.1100
27     O27    10.4341   -3.4249   13.2131 O.co2    1 ZINC000008551209   -1.1100
28     O28    10.7407   -0.8714   13.3642 O.3      1 ZINC000008551209   -1.0900
29     P29    12.1425   -0.3132   13.9257 P.3      1 ZINC000008551209    2.2900
30     O30    13.1265   -1.4892   14.1149 O.co2    1 ZINC000008551209   -1.1000
31     O31    11.9112    0.3882   15.2827 O.co2    1 ZINC000008551209   -1.1100
32     O32    12.7601    0.7397   12.8758 O.3      1 ZINC000008551209   -0.7700
33     C33    14.0497    1.3339   13.0368 C.3      1 ZINC000008551209    0.1400
34     C34    14.3244    2.2812   11.8671 C.3      1 ZINC000008551209    0.0700
35     H35    14.2006    1.7580   10.9190 H        1 ZINC000008551209    0.1000
36     O36    13.4444    3.4247   11.9290 O.3      1 ZINC000008551209   -0.3500
37     C37    14.0884    4.4439   11.1337 C.3      1 ZINC000008551209    0.2600
38     H38    13.9299    4.2535   10.0722 H        1 ZINC000008551209    0.1200
39     N39    13.5799    5.7695   11.4946 N.pl3    1 ZINC000008551209   -0.4500
40     C40    13.0110    6.1192   12.6830 C.2      1 ZINC000008551209    0.2900
41     N41    12.6735    7.3759   12.6617 N.2      1 ZINC000008551209   -0.4800
42     C42    13.0034    7.9111   11.4618 C.ar     1 ZINC000008551209   -0.1000
43     C43    12.8831    9.1850   10.8813 C.ar     1 ZINC000008551209    0.5000
44     N44    12.3153   10.2329   11.5848 N.pl3    1 ZINC000008551209   -0.8300
45     N45    13.3276    9.3604    9.6411 N.ar     1 ZINC000008551209   -0.6000
46     C46    13.8712    8.3666    8.9626 C.ar     1 ZINC000008551209    0.3400
47     N47    14.0041    7.1572    9.4653 N.ar     1 ZINC000008551209   -0.5400
48     C48    13.5944    6.8884   10.7006 C.ar     1 ZINC000008551209    0.3000
49     C49    15.5888    4.3274   11.4827 C.3      1 ZINC000008551209    0.0600
50     H50    15.8526    5.0298   12.2734 H        1 ZINC000008551209    0.0700
51     O51    16.3918    4.5562   10.3231 O.3      1 ZINC000008551209   -0.5000
52     C52    15.7486    2.8696   11.9747 C.3      1 ZINC000008551209    0.1500
53     H53    16.0909    2.8511   13.0094 H        1 ZINC000008551209    0.0800
54     O54    16.6574    2.1546   11.1352 O.3      1 ZINC000008551209   -0.7200
55     P55    18.0019    1.4623   11.6876 P.3      1 ZINC000008551209    2.1200
56     O56    18.8671    2.5292   12.4409 O.co2    1 ZINC000008551209   -1.1900
57     O57    17.6257    0.3043   12.6736 O.co2    1 ZINC000008551209   -1.1700
58     O58    18.8210    0.8796   10.4860 O.co2    1 ZINC000008551209   -1.1700
59     H59    -8.5719    1.2941   14.1431 H        1 ZINC000008551209    0.0600
60     H60    -9.3786    2.7505   13.5135 H        1 ZINC000008551209    0.0700
61     H61    -8.0061    2.0410   12.6297 H        1 ZINC000008551209    0.0700
62     H62    -7.3065    4.0601   13.8877 H        1 ZINC000008551209    0.1100
63     H63    -8.1896    2.4491   16.3253 H        1 ZINC000008551209    0.0600
64     H64    -7.3516    4.0189   16.3666 H        1 ZINC000008551209    0.0600
65     H65    -8.9964    3.9055   15.6958 H        1 ZINC000008551209    0.0700
66     H66    -3.3027    1.9043   14.5827 H        1 ZINC000008551209    0.1000
67     H67    -4.1408    0.3345   14.5414 H        1 ZINC000008551209    0.1000
68     H68    -3.3504   -0.0264   12.2189 H        1 ZINC000008551209    0.0800
69     H69    -2.5123    1.5434   12.2602 H        1 ZINC000008551209    0.0800
70     H70    -1.6273    0.0040   14.4565 H        1 ZINC000008551209    0.4000
71     H71     1.0034   -0.3797   14.0151 H        1 ZINC000008551209    0.1100
72     H72     0.1654   -1.9495   13.9738 H        1 ZINC000008551209    0.1000
73     H73     0.9558   -2.3104   11.6514 H        1 ZINC000008551209    0.0700
74     H74     1.7939   -0.7406   11.6927 H        1 ZINC000008551209    0.0800
75     H75     2.6789   -2.2800   13.8889 H        1 ZINC000008551209    0.4000
76     H76     4.4379   -2.5733   14.6563 H        1 ZINC000008551209    0.3700
77     H77     5.5005   -1.8953   10.5044 H        1 ZINC000008551209    0.0600
78     H78     7.2291   -1.6937   10.8780 H        1 ZINC000008551209    0.0800
79     H79     6.5398   -3.3259   10.7079 H        1 ZINC000008551209    0.0500
80     H80     5.4199   -0.9351   14.0733 H        1 ZINC000008551209    0.0500
81     H81     6.4825   -0.2431   12.8242 H        1 ZINC000008551209    0.0800
82     H82     4.7744   -0.5794   12.4531 H        1 ZINC000008551209    0.0400
83     H83     7.0243   -2.8237   14.3919 H        1 ZINC000008551209    0.0600
84     H84     7.5219   -3.8134   12.9986 H        1 ZINC000008551209    0.0500
85     H85    14.0777    1.8935   13.9718 H        1 ZINC000008551209    0.0600
86     H86    14.8096    0.5528   13.0579 H        1 ZINC000008551209    0.1000
87     H87    12.8618    5.4516   13.5187 H        1 ZINC000008551209    0.2300
88     H88    11.9948   10.0924   12.4895 H        1 ZINC000008551209    0.4200
89     H89    12.2378   11.1078   11.1732 H        1 ZINC000008551209    0.4000
90     H90    14.2194    8.5528    7.9573 H        1 ZINC000008551209    0.2000
91     H91    16.2846    5.4366    9.9378 H        1 ZINC000008551209    0.3500
@<TRIPOS>BOND
1     1     2     1
2     1     59    1
3     1     60    1
4     1     61    1
5     2     3     1
6     2     4     1
7     2     62    1
8     3     63    1
9     3     64    1
10    3     65    1
11    4     5     2
12    4     6     1
13    6     7     1
14    7     8     1
15    7     66    1
16    7     67    1
17    8     9     1
18    8     68    1
19    8     69    1
20    9     10    am
21    9     70    1
22    10    11    2
23    10    12    1
24    12    13    1
25    12    71    1
26    12    72    1
27    13    14    1
28    13    73    1
29    13    74    1
30    14    15    am
31    14    75    1
32    15    16    2
33    15    17    1
34    17    18    1
35    17    19    1
36    17    20    1
37    19    76    1
38    20    21    1
39    20    22    1
40    20    23    1
41    21    77    1
42    21    78    1
43    21    79    1
44    22    80    1
45    22    81    1
46    22    82    1
47    23    24    1
48    23    83    1
49    23    84    1
50    24    25    1
51    25    26    ar
52    25    27    ar
53    25    28    1
54    28    29    1
55    29    30    ar
56    29    31    ar
57    29    32    1
58    32    33    1
59    33    34    1
60    33    85    1
61    33    86    1
62    34    35    1
63    34    52    1
64    34    36    1
65    36    37    1
66    37    38    1
67    37    39    1
68    37    49    1
69    39    48    1
70    39    40    1
71    40    41    2
72    40    87    1
73    41    42    1
74    42    48    ar
75    42    43    ar
76    43    44    1
77    43    45    ar
78    44    88    1
79    44    89    1
80    45    46    ar
81    46    47    ar
82    46    90    1
83    47    48    ar
84    49    50    1
85    49    51    1
86    49    52    1
87    51    91    1
88    52    53    1
89    52    54    1
90    54    55    1
91    55    56    ar
92    55    57    ar
93    55    58    ar
@<TRIPOS>SUBSTRUCTURE
1   ZINC000008551209 1     RESIDUE    1   A     ZIN   1
@<TRIPOS>MOLECULE
ZINC000008216706
94    96    1     0     0
SMALL
USER_CHARGES
@<TRIPOS>ATOM
1      C1      8.2642   -5.1913   15.8333 C.3      1 ZINC000008216706   -0.1500
2      C2      8.0227   -6.3327   14.8435 C.3      1 ZINC000008216706   -0.1100
3      C3      7.4436   -5.7677   13.5449 C.3      1 ZINC000008216706   -0.1200
4      H4      6.5473   -5.1891   13.7682 H        1 ZINC000008216706    0.1100
5      C5      8.4805   -4.8638   12.8750 C.3      1 ZINC000008216706   -0.1500
6      C6      7.0913   -6.9016   12.6169 C.2      1 ZINC000008216706    0.3300
7      O7      7.2844   -8.0491   12.9604 O.2      1 ZINC000008216706   -0.4500
8      S8      6.4186   -6.5705   11.0778 S.3      1 ZINC000008216706   -0.1200
9      C9      6.2183   -8.2574   10.4529 C.3      1 ZINC000008216706   -0.1200
10     C10     5.6145   -8.2124    9.0478 C.3      1 ZINC000008216706    0.1400
11     N11     5.4524   -9.5777    8.5420 N.am     1 ZINC000008216706   -0.7300
12     C12     4.9349   -9.7848    7.3149 C.2      1 ZINC000008216706    0.5200
13     O13     4.6034   -8.8408    6.6294 O.2      1 ZINC000008216706   -0.5300
14     C14     4.7681  -11.1893    6.7946 C.3      1 ZINC000008216706   -0.1500
15     C15     4.1643  -11.1443    5.3895 C.3      1 ZINC000008216706    0.1400
16     N16     4.0021  -12.5096    4.8837 N.am     1 ZINC000008216706   -0.7400
17     C17     3.4846  -12.7166    3.6566 C.2      1 ZINC000008216706    0.5000
18     O18     3.0692  -11.7800    3.0078 O.2      1 ZINC000008216706   -0.5200
19     C19     3.4222  -14.1120    3.0908 C.3      1 ZINC000008216706    0.1000
20     H20     3.8907  -14.1262    2.1067 H        1 ZINC000008216706    0.1400
21     O21     4.1141  -15.0101    3.9607 O.3      1 ZINC000008216706   -0.5500
22     C22     1.9607  -14.5469    2.9663 C.3      1 ZINC000008216706   -0.0900
23     C23     1.2667  -14.3970    4.3216 C.3      1 ZINC000008216706   -0.1400
24     C24     1.2537  -13.6693    1.9314 C.3      1 ZINC000008216706   -0.1400
25     C25     1.9000  -16.0095    2.5213 C.3      1 ZINC000008216706    0.1500
26     O26     0.5349  -16.4158    2.4050 O.3      1 ZINC000008216706   -0.7700
27     P27     0.0964  -17.8984    1.9560 P.3      1 ZINC000008216706    2.2900
28     O28     0.7539  -18.2416    0.6006 O.co2    1 ZINC000008216706   -1.1000
29     O29     0.5554  -18.9167    3.0235 O.co2    1 ZINC000008216706   -1.1100
30     O30    -1.5054  -17.9624    1.8069 O.3      1 ZINC000008216706   -1.0900
31     P31    -2.5241  -19.0036    1.1212 P.3      1 ZINC000008216706    2.2900
32     O32    -1.9326  -19.4966   -0.2182 O.co2    1 ZINC000008216706   -1.1000
33     O33    -2.7404  -20.2088    2.0633 O.co2    1 ZINC000008216706   -1.1000
34     O34    -3.9339  -18.2751    0.8494 O.3      1 ZINC000008216706   -0.7700
35     C35    -5.0136  -18.9034    0.1555 C.3      1 ZINC000008216706    0.1400
36     C36    -6.1973  -17.9375    0.0725 C.3      1 ZINC000008216706    0.0700
37     H37    -6.4663  -17.5817    1.0670 H        1 ZINC000008216706    0.1000
38     O38    -5.8781  -16.8242   -0.7904 O.3      1 ZINC000008216706   -0.3500
39     C39    -7.1527  -16.2747   -1.1898 C.3      1 ZINC000008216706    0.2600
40     H40    -7.5701  -15.6639   -0.3894 H        1 ZINC000008216706    0.1200
41     N41    -7.0053  -15.4807   -2.4121 N.pl3    1 ZINC000008216706   -0.4500
42     C42    -6.0198  -15.6114   -3.3449 C.2      1 ZINC000008216706    0.2900
43     N43    -6.1947  -14.7456   -4.3007 N.2      1 ZINC000008216706   -0.4800
44     C44    -7.3003  -14.0064   -4.0428 C.ar     1 ZINC000008216706   -0.1000
45     C45    -7.9611  -12.9546   -4.6996 C.ar     1 ZINC000008216706    0.5000
46     N46    -7.4828  -12.4574   -5.8993 N.pl3    1 ZINC000008216706   -0.8300
47     N47    -9.0564  -12.4486   -4.1421 N.ar     1 ZINC000008216706   -0.6000
48     C48    -9.5201  -12.9170   -2.9980 C.ar     1 ZINC000008216706    0.3400
49     N49    -8.9343  -13.9001   -2.3474 N.ar     1 ZINC000008216706   -0.5400
50     C50    -7.8370  -14.4731   -2.8309 C.ar     1 ZINC000008216706    0.2900
51     C51    -8.0490  -17.5057   -1.4502 C.3      1 ZINC000008216706    0.0600
52     H52    -8.0343  -17.7722   -2.5070 H        1 ZINC000008216706    0.0700
53     O53    -9.3870  -17.2512   -1.0178 O.3      1 ZINC000008216706   -0.5000
54     C54    -7.4069  -18.6256   -0.5980 C.3      1 ZINC000008216706    0.1500
55     H55    -7.0739  -19.4460   -1.2337 H        1 ZINC000008216706    0.0800
56     O56    -8.3302  -19.0986    0.3849 O.3      1 ZINC000008216706   -0.7200
57     P57    -8.8023  -20.6350    0.4770 P.3      1 ZINC000008216706    2.1200
58     O58    -9.3839  -21.0864   -0.9060 O.co2    1 ZINC000008216706   -1.1900
59     O59    -7.5760  -21.5369    0.8473 O.co2    1 ZINC000008216706   -1.1700
60     O60    -9.9066  -20.7768    1.5792 O.co2    1 ZINC000008216706   -1.1700
61     H61     7.3208   -4.6880   16.0448 H        1 ZINC000008216706    0.0600
62     H62     8.6767   -5.5938   16.7585 H        1 ZINC000008216706    0.0600
63     H63     8.9673   -4.4788   15.4017 H        1 ZINC000008216706    0.0600
64     H64     8.9661   -6.8360   14.6320 H        1 ZINC000008216706    0.0700
65     H65     7.3196   -7.0452   15.2751 H        1 ZINC000008216706    0.0700
66     H66     8.7353   -4.0437   13.5463 H        1 ZINC000008216706    0.0700
67     H67     9.3768   -5.4424   12.6517 H        1 ZINC000008216706    0.0600
68     H68     8.0680   -4.4613   11.9499 H        1 ZINC000008216706    0.0700
69     H69     7.1906   -8.7487   10.4149 H        1 ZINC000008216706    0.1000
70     H70     5.5556   -8.8140   11.1155 H        1 ZINC000008216706    0.1000
71     H71     4.6422   -7.7212    9.0857 H        1 ZINC000008216706    0.0800
72     H72     6.2772   -7.6558    8.3852 H        1 ZINC000008216706    0.0800
73     H73     5.7175  -10.3327    9.0903 H        1 ZINC000008216706    0.4000
74     H74     5.7404  -11.6805    6.7567 H        1 ZINC000008216706    0.1000
75     H75     4.1054  -11.7459    7.4572 H        1 ZINC000008216706    0.1100
76     H76     3.1920  -10.6530    5.4275 H        1 ZINC000008216706    0.0800
77     H77     4.8270  -10.5876    4.7269 H        1 ZINC000008216706    0.0700
78     H78     4.2672  -13.2646    5.4320 H        1 ZINC000008216706    0.4000
79     H79     3.7506  -15.0488    4.8559 H        1 ZINC000008216706    0.3700
80     H80     1.3099  -13.3550    4.6386 H        1 ZINC000008216706    0.0400
81     H81     0.2255  -14.7068    4.2329 H        1 ZINC000008216706    0.0800
82     H82     1.7703  -15.0222    5.0588 H        1 ZINC000008216706    0.0500
83     H83     1.8141  -13.6868    0.9966 H        1 ZINC000008216706    0.0500
84     H84     0.2471  -14.0501    1.7589 H        1 ZINC000008216706    0.0800
85     H85     1.1964  -12.6456    2.3016 H        1 ZINC000008216706    0.0600
86     H86     2.3944  -16.1164    1.5558 H        1 ZINC000008216706    0.0500
87     H87     2.4036  -16.6348    3.2585 H        1 ZINC000008216706    0.0600
88     H88    -4.6919  -19.1711   -0.8509 H        1 ZINC000008216706    0.0600
89     H89    -5.3157  -19.8029    0.6918 H        1 ZINC000008216706    0.1000
90     H90    -5.2126  -16.3274   -3.2975 H        1 ZINC000008216706    0.2300
91     H91    -6.6826  -12.8353   -6.2964 H        1 ZINC000008216706    0.4200
92     H92    -7.9479  -11.7310   -6.3431 H        1 ZINC000008216706    0.4000
93     H93   -10.4134  -12.4767   -2.5800 H        1 ZINC000008216706    0.2000
94     H94    -9.8165  -16.5177   -1.4789 H        1 ZINC000008216706    0.3500
@<TRIPOS>BOND
1     1     2     1
2     1     61    1
3     1     62    1
4     1     63    1
5     2     3     1
6     2     64    1
7     2     65    1
8     3     4     1
9     3     5     1
10    3     6     1
11    5     66    1
12    5     67    1
13    5     68    1
14    6     7     2
15    6     8     1
16    8     9     1
17    9     10    1
18    9     69    1
19    9     70    1
20    10    11    1
21    10    71    1
22    10    72    1
23    11    12    am
24    11    73    1
25    12    13    2
26    12    14    1
27    14    15    1
28    14    74    1
29    14    75    1
30    15    16    1
31    15    76    1
32    15    77    1
33    16    17    am
34    16    78    1
35    17    18    2
36    17    19    1
37    19    20    1
38    19    21    1
39    19    22    1
40    21    79    1
41    22    23    1
42    22    24    1
43    22    25    1
44    23    80    1
45    23    81    1
46    23    82    1
47    24    83    1
48    24    84    1
49    24    85    1
50    25    26    1
51    25    86    1
52    25    87    1
53    26    27    1
54    27    28    ar
55    27    29    ar
56    27    30    1
57    30    31    1
58    31    32    ar
59    31    33    ar
60    31    34    1
61    34    35    1
62    35    36    1
63    35    88    1
64    35    89    1
65    36    37    1
66    36    54    1
67    36    38    1
68    38    39    1
69    39    40    1
70    39    41    1
71    39    51    1
72    41    50    1
73    41    42    1
74    42    43    2
75    42    90    1
76    43    44    1
77    44    50    ar
78    44    45    ar
79    45    46    1
80    45    47    ar
81    46    91    1
82    46    92    1
83    47    48    ar
84    48    49    ar
85    48    93    1
86    49    50    ar
87    51    52    1
88    51    53    1
89    51    54    1
90    53    94    1
91    54    55    1
92    54    56    1
93    56    57    1
94    57    58    ar
95    57    59    ar
96    57    60    ar
@<TRIPOS>SUBSTRUCTURE
1   ZINC000008216706 1     RESIDUE    1   A     ZIN   1
@<TRIPOS>MOLECULE
ZINC000008551764
95    97    1     0     0
SMALL
USER_CHARGES
@<TRIPOS>ATOM
1      C1     -4.9326   -8.4732  -21.1516 C.3      1 ZINC000008551764   -0.1500
2      C2     -4.5768   -9.4806  -20.0563 C.3      1 ZINC000008551764   -0.1200
3      C3     -5.3706   -9.1575  -18.7889 C.3      1 ZINC000008551764   -0.1000
4      C4     -5.0201  -10.1497  -17.7101 C.2      1 ZINC000008551764   -0.0500
5      C5     -4.5862   -9.7214  -16.5282 C.2      1 ZINC000008551764   -0.2200
6      C6     -4.2442  -10.6899  -15.4753 C.2      1 ZINC000008551764    0.3800
7      O7     -4.3582  -11.8828  -15.6856 O.2      1 ZINC000008551764   -0.4500
8      S8     -3.6693  -10.1224  -13.9094 S.3      1 ZINC000008551764   -0.1400
9      C9     -3.4239  -11.7078  -13.0713 C.3      1 ZINC000008551764   -0.1100
10     C10    -2.9113  -11.4600  -11.6511 C.3      1 ZINC000008551764    0.1400
11     N11    -2.7127  -12.7432  -10.9728 N.am     1 ZINC000008551764   -0.7300
12     C12    -2.2625  -12.7714   -9.7027 C.2      1 ZINC000008551764    0.5200
13     O13    -2.0219  -11.7346   -9.1214 O.2      1 ZINC000008551764   -0.5300
14     C14    -2.0582  -14.0914   -9.0049 C.3      1 ZINC000008551764   -0.1500
15     C15    -1.5456  -13.8436   -7.5848 C.3      1 ZINC000008551764    0.1400
16     N16    -1.3470  -15.1268   -6.9065 N.am     1 ZINC000008551764   -0.7400
17     C17    -0.8968  -15.1551   -5.6364 C.2      1 ZINC000008551764    0.5000
18     O18    -0.5679  -14.1253   -5.0865 O.2      1 ZINC000008551764   -0.5300
19     C19    -0.8022  -16.4662   -4.8995 C.3      1 ZINC000008551764    0.1000
20     H20     0.1764  -16.5472   -4.4264 H        1 ZINC000008551764    0.1400
21     O21    -0.9764  -17.5443   -5.8212 O.3      1 ZINC000008551764   -0.5500
22     C22    -1.8932  -16.5294   -3.8287 C.3      1 ZINC000008551764   -0.0900
23     C23    -1.6216  -15.4681   -2.7606 C.3      1 ZINC000008551764   -0.1400
24     C24    -3.2560  -16.2673   -4.4731 C.3      1 ZINC000008551764   -0.1400
25     C25    -1.8931  -17.9158   -3.1817 C.3      1 ZINC000008551764    0.1500
26     O26    -2.9122  -17.9748   -2.1816 O.3      1 ZINC000008551764   -0.7700
27     P27    -3.1970  -19.2891   -1.2964 P.3      1 ZINC000008551764    2.3000
28     O28    -3.4542  -20.4930   -2.2299 O.co2    1 ZINC000008551764   -1.1100
29     O29    -1.9718  -19.5832   -0.4023 O.co2    1 ZINC000008551764   -1.1100
30     O30    -4.4904  -19.0423   -0.3701 O.3      1 ZINC000008551764   -1.0900
31     P31    -5.4572  -20.0082    0.4811 P.3      1 ZINC000008551764    2.2900
32     O32    -4.6031  -21.0199    1.2773 O.co2    1 ZINC000008551764   -1.1000
33     O33    -6.3977  -20.7709   -0.4785 O.co2    1 ZINC000008551764   -1.1100
34     O34    -6.3341  -19.1250    1.5025 O.3      1 ZINC000008551764   -0.7700
35     C35    -7.2142  -19.6996    2.4706 C.3      1 ZINC000008551764    0.1400
36     C36    -7.8880  -18.5844    3.2727 C.3      1 ZINC000008551764    0.0700
37     H37    -7.1378  -17.9219    3.7042 H        1 ZINC000008551764    0.1000
38     O38    -8.7944  -17.8377    2.4320 O.3      1 ZINC000008551764   -0.3500
39     C39    -9.7064  -17.1846    3.3417 C.3      1 ZINC000008551764    0.2600
40     H40    -9.2362  -16.3070    3.7854 H        1 ZINC000008551764    0.1200
41     N41   -10.9375  -16.8047    2.6444 N.pl3    1 ZINC000008551764   -0.4500
42     C42   -11.4315  -17.3770    1.5101 C.2      1 ZINC000008551764    0.2900
43     N43   -12.5423  -16.7934    1.1650 N.2      1 ZINC000008551764   -0.4800
44     C44   -12.8310  -15.8122    2.0533 C.ar     1 ZINC000008551764   -0.1000
45     C45   -13.8704  -14.8765    2.1889 C.ar     1 ZINC000008551764    0.5000
46     N46   -14.9084  -14.8337    1.2746 N.pl3    1 ZINC000008551764   -0.8300
47     N47   -13.8338  -14.0337    3.2160 N.ar     1 ZINC000008551764   -0.6000
48     C48   -12.8476  -14.0675    4.0935 C.ar     1 ZINC000008551764    0.3400
49     N49   -11.8533  -14.9259    4.0063 N.ar     1 ZINC000008551764   -0.5400
50     C50   -11.8079  -15.8115    3.0166 C.ar     1 ZINC000008551764    0.3000
51     C51   -10.0050  -18.2417    4.4279 C.3      1 ZINC000008551764    0.0600
52     H52   -10.9171  -18.7883    4.1883 H        1 ZINC000008551764    0.0700
53     O53   -10.1159  -17.6234    5.7114 O.3      1 ZINC000008551764   -0.5000
54     C54    -8.7789  -19.1838    4.3833 C.3      1 ZINC000008551764    0.1500
55     H55    -9.0848  -20.1965    4.1208 H        1 ZINC000008551764    0.0800
56     O56    -8.0969  -19.1777    5.6390 O.3      1 ZINC000008551764   -0.7200
57     P57    -7.8659  -20.5067    6.5179 P.3      1 ZINC000008551764    2.1200
58     O58    -9.2440  -21.2023    6.7849 O.co2    1 ZINC000008551764   -1.1900
59     O59    -6.9265  -21.4902    5.7403 O.co2    1 ZINC000008551764   -1.1700
60     O60    -7.2023  -20.1208    7.8836 O.co2    1 ZINC000008551764   -1.1700
61     H61    -5.9997   -8.5317  -21.3663 H        1 ZINC000008551764    0.0600
62     H62    -4.6845   -7.4669  -20.8141 H        1 ZINC000008551764    0.0600
63     H63    -4.3671   -8.7034  -22.0546 H        1 ZINC000008551764    0.0600
64     H64    -4.8249  -10.4869  -20.3938 H        1 ZINC000008551764    0.0700
65     H65    -3.5098   -9.4221  -19.8416 H        1 ZINC000008551764    0.0700
66     H66    -5.1225   -8.1512  -18.4514 H        1 ZINC000008551764    0.0800
67     H67    -6.4376   -9.2160  -19.0036 H        1 ZINC000008551764    0.0900
68     H68    -5.1213  -11.2086  -17.8968 H        1 ZINC000008551764    0.1300
69     H69    -4.4850   -8.6625  -16.3415 H        1 ZINC000008551764    0.1400
70     H70    -4.3708  -12.2458  -13.0271 H        1 ZINC000008551764    0.1000
71     H71    -2.6943  -12.3010  -13.6225 H        1 ZINC000008551764    0.1000
72     H72    -1.9644  -10.9219  -11.6953 H        1 ZINC000008551764    0.0800
73     H73    -3.6409  -10.8667  -11.0999 H        1 ZINC000008551764    0.0800
74     H74    -2.9051  -13.5724  -11.4377 H        1 ZINC000008551764    0.4000
75     H75    -3.0051  -14.6295   -8.9607 H        1 ZINC000008551764    0.1100
76     H76    -1.3286  -14.6847   -9.5562 H        1 ZINC000008551764    0.1000
77     H77    -0.5987  -13.3055   -7.6290 H        1 ZINC000008551764    0.0700
78     H78    -2.2752  -13.2503   -7.0336 H        1 ZINC000008551764    0.0800
79     H79    -1.5394  -15.9561   -7.3714 H        1 ZINC000008551764    0.4000
80     H80    -1.8275  -17.5357   -6.2802 H        1 ZINC000008551764    0.3700
81     H81    -1.6986  -14.4762   -3.2061 H        1 ZINC000008551764    0.0600
82     H82    -2.3535  -15.5641   -1.9587 H        1 ZINC000008551764    0.0800
83     H83    -0.6191  -15.6079   -2.3563 H        1 ZINC000008551764    0.0500
84     H84    -3.4495  -17.0234   -5.2340 H        1 ZINC000008551764    0.0500
85     H85    -4.0332  -16.3123   -3.7102 H        1 ZINC000008551764    0.0800
86     H86    -3.2560  -15.2796   -4.9340 H        1 ZINC000008551764    0.0400
87     H87    -2.0867  -18.6719   -3.9427 H        1 ZINC000008551764    0.0600
88     H88    -0.9223  -18.1025   -2.7227 H        1 ZINC000008551764    0.0500
89     H89    -7.9749  -20.2929    1.9633 H        1 ZINC000008551764    0.0600
90     H90    -6.6447  -20.3390    3.1451 H        1 ZINC000008551764    0.1000
91     H91   -10.9689  -18.1939    0.9762 H        1 ZINC000008551764    0.2300
92     H92   -14.9241  -15.4543    0.5293 H        1 ZINC000008551764    0.4200
93     H93   -15.6202  -14.1831    1.3791 H        1 ZINC000008551764    0.4000
94     H94   -12.8570  -13.3644    4.9132 H        1 ZINC000008551764    0.2000
95     H95   -10.8328  -16.9777    5.7763 H        1 ZINC000008551764    0.3500
@<TRIPOS>BOND
1     1     2     1
2     1     61    1
3     1     62    1
4     1     63    1
5     2     3     1
6     2     64    1
7     2     65    1
8     3     4     1
9     3     66    1
10    3     67    1
11    4     5     2
12    4     68    1
13    5     6     1
14    5     69    1
15    6     7     2
16    6     8     1
17    8     9     1
18    9     10    1
19    9     70    1
20    9     71    1
21    10    11    1
22    10    72    1
23    10    73    1
24    11    12    am
25    11    74    1
26    12    13    2
27    12    14    1
28    14    15    1
29    14    75    1
30    14    76    1
31    15    16    1
32    15    77    1
33    15    78    1
34    16    17    am
35    16    79    1
36    17    18    2
37    17    19    1
38    19    20    1
39    19    21    1
40    19    22    1
41    21    80    1
42    22    23    1
43    22    24    1
44    22    25    1
45    23    81    1
46    23    82    1
47    23    83    1
48    24    84    1
49    24    85    1
50    24    86    1
51    25    26    1
52    25    87    1
53    25    88    1
54    26    27    1
55    27    28    ar
56    27    29    ar
57    27    30    1
58    30    31    1
59    31    32    ar
60    31    33    ar
61    31    34    1
62    34    35    1
63    35    36    1
64    35    89    1
65    35    90    1
66    36    37    1
67    36    54    1
68    36    38    1
69    38    39    1
70    39    40    1
71    39    41    1
72    39    51    1
73    41    50    1
74    41    42    1
75    42    43    2
76    42    91    1
77    43    44    1
78    44    50    ar
79    44    45    ar
80    45    46    1
81    45    47    ar
82    46    92    1
83    46    93    1
84    47    48    ar
85    48    49    ar
86    48    94    1
87    49    50    ar
88    51    52    1
89    51    53    1
90    51    54    1
91    53    95    1
92    54    55    1
93    54    56    1
94    56    57    1
95    57    58    ar
96    57    59    ar
97    57    60    ar
@<TRIPOS>SUBSTRUCTURE
1   ZINC000008551764 1     RESIDUE    1   A     ZIN   1
@<TRIPOS>MOLECULE
ZINC000008219729
94    96    1     0     0
SMALL
USER_CHARGES
@<TRIPOS>ATOM
1      C1    -17.8245   -5.3413   -0.4199 C.3      1 ZINC000008219729   -0.1800
2      C2    -16.8070   -6.4598   -0.6535 C.3      1 ZINC000008219729    0.0400
3      H3    -16.9721   -7.2581    0.0701 H        1 ZINC000008219729    0.1500
4      N4    -16.9671   -6.9911   -2.0137 N.4      1 ZINC000008219729   -0.6400
5      H5    -16.8143   -6.2522   -2.6835 H        1 ZINC000008219729    0.4300
6      H6    -16.2961   -7.7287   -2.1678 H        1 ZINC000008219729    0.4400
7      H7    -17.9008   -7.3573   -2.1240 H        1 ZINC000008219729    0.4400
8      C8    -15.3912   -5.9045   -0.4862 C.3      1 ZINC000008219729   -0.1800
9      C9    -14.3943   -7.0294   -0.5947 C.2      1 ZINC000008219729    0.3000
10     O10   -14.7786   -8.1641   -0.7870 O.2      1 ZINC000008219729   -0.4700
11     S11   -12.7196   -6.7063   -0.4466 S.3      1 ZINC000008219729   -0.0400
12     C12   -12.0573   -8.3777   -0.6566 C.3      1 ZINC000008219729   -0.1300
13     C13   -10.5309   -8.3373   -0.5596 C.3      1 ZINC000008219729    0.1300
14     N14    -9.9948   -9.6901   -0.7296 N.am     1 ZINC000008219729   -0.7400
15     C15    -8.6642   -9.8986   -0.6814 C.2      1 ZINC000008219729    0.5200
16     O16    -7.9106   -8.9664   -0.4973 O.2      1 ZINC000008219729   -0.5200
17     C17    -8.1128  -11.2901   -0.8562 C.3      1 ZINC000008219729   -0.1500
18     C18    -6.5864  -11.2498   -0.7592 C.3      1 ZINC000008219729    0.1400
19     N19    -6.0503  -12.6025   -0.9292 N.am     1 ZINC000008219729   -0.7400
20     C20    -4.7196  -12.8111   -0.8810 C.2      1 ZINC000008219729    0.5000
21     O21    -3.9612  -11.8692   -0.7882 O.2      1 ZINC000008219729   -0.5200
22     C22    -4.1742  -14.2146   -0.9423 C.3      1 ZINC000008219729    0.1000
23     H23    -3.5032  -14.3808   -0.0996 H        1 ZINC000008219729    0.1400
24     O24    -5.2542  -15.1484   -0.8826 O.3      1 ZINC000008219729   -0.5500
25     C25    -3.4059  -14.4063   -2.2515 C.3      1 ZINC000008219729   -0.0900
26     C26    -4.3092  -14.0412   -3.4311 C.3      1 ZINC000008219729   -0.1400
27     C27    -2.1714  -13.5025   -2.2555 C.3      1 ZINC000008219729   -0.1400
28     C28    -2.9688  -15.8672   -2.3770 C.3      1 ZINC000008219729    0.1500
29     O29    -2.2512  -16.0463   -3.5997 O.3      1 ZINC000008219729   -0.7700
30     P30    -1.6414  -17.4638   -4.0590 P.3      1 ZINC000008219729    2.2900
31     O31    -0.7202  -18.0128   -2.9468 O.co2    1 ZINC000008219729   -1.1000
32     O32    -2.7931  -18.4618   -4.3131 O.co2    1 ZINC000008219729   -1.1100
33     O33    -0.7915  -17.2692   -5.4125 O.3      1 ZINC000008219729   -1.0900
34     P34     0.2857  -18.1732   -6.1963 P.3      1 ZINC000008219729    2.2900
35     O35     1.2234  -18.8572   -5.1766 O.co2    1 ZINC000008219729   -1.1000
36     O36    -0.4505  -19.2511   -7.0227 O.co2    1 ZINC000008219729   -1.1000
37     O37     1.1530  -17.2409   -7.1817 O.3      1 ZINC000008219729   -0.7700
38     C38     2.2615  -17.7294   -7.9398 C.3      1 ZINC000008219729    0.1400
39     C39     2.8570  -16.5876   -8.7660 C.3      1 ZINC000008219729    0.0700
40     H40     2.0848  -16.1184   -9.3755 H        1 ZINC000008219729    0.1000
41     O41     3.4771  -15.6113   -7.9010 O.3      1 ZINC000008219729   -0.3500
42     C42     4.3996  -14.8874   -8.7441 C.3      1 ZINC000008219729    0.2600
43     H43     3.8652  -14.1570   -9.3516 H        1 ZINC000008219729    0.1200
44     N44     5.4205  -14.2230   -7.9301 N.pl3    1 ZINC000008219729   -0.4500
45     C45     5.8155  -14.5865   -6.6770 C.2      1 ZINC000008219729    0.2900
46     N46     6.7415  -13.7777   -6.2506 N.2      1 ZINC000008219729   -0.4800
47     C47     6.9990  -12.8463   -7.2001 C.ar     1 ZINC000008219729   -0.1000
48     C48     7.8733  -11.7507   -7.2982 C.ar     1 ZINC000008219729    0.5000
49     N49     8.7285  -11.4320   -6.2580 N.pl3    1 ZINC000008219729   -0.8300
50     N50     7.8601  -11.0280   -8.4135 N.ar     1 ZINC000008219729   -0.6000
51     C51     7.0478  -11.3250   -9.4113 C.ar     1 ZINC000008219729    0.3400
52     N52     6.2121  -12.3410   -9.3636 N.ar     1 ZINC000008219729   -0.5400
53     C53     6.1587  -13.1244   -8.2915 C.ar     1 ZINC000008219729    0.2900
54     C54     5.0432  -15.9666   -9.6427 C.3      1 ZINC000008219729    0.0600
55     H55     5.9841  -16.3101   -9.2128 H        1 ZINC000008219729    0.0700
56     O56     5.2526  -15.4597  -10.9622 O.3      1 ZINC000008219729   -0.5000
57     C57     4.0031  -17.1114   -9.6596 C.3      1 ZINC000008219729    0.1500
58     H58     4.4296  -18.0212   -9.2372 H        1 ZINC000008219729    0.0800
59     O59     3.5405  -17.3479  -10.9908 O.3      1 ZINC000008219729   -0.7200
60     P60     3.6818  -18.7722  -11.7281 P.3      1 ZINC000008219729    2.1200
61     O61     5.1825  -19.2218  -11.7123 O.co2    1 ZINC000008219729   -1.1900
62     O62     2.8098  -19.8367  -10.9793 O.co2    1 ZINC000008219729   -1.1700
63     O63     3.1906  -18.6439  -13.2103 O.co2    1 ZINC000008219729   -1.1700
64     H64   -18.8331   -5.7369   -0.5390 H        1 ZINC000008219729    0.0900
65     H65   -17.7057   -4.9471    0.5894 H        1 ZINC000008219729    0.1100
66     H66   -17.6595   -4.5430   -1.1435 H        1 ZINC000008219729    0.0900
67     H67   -15.1950   -5.1687   -1.2661 H        1 ZINC000008219729    0.1300
68     H68   -15.2998   -5.4310    0.4913 H        1 ZINC000008219729    0.1500
69     H69   -12.4540   -9.0265    0.1243 H        1 ZINC000008219729    0.1100
70     H70   -12.3492   -8.7641   -1.6331 H        1 ZINC000008219729    0.1100
71     H71   -10.1342   -7.6885   -1.3405 H        1 ZINC000008219729    0.0800
72     H72   -10.2390   -7.9508    0.4169 H        1 ZINC000008219729    0.0800
73     H73   -10.5976  -10.4357   -0.8768 H        1 ZINC000008219729    0.4000
74     H74    -8.5094  -11.9389   -0.0753 H        1 ZINC000008219729    0.1100
75     H75    -8.4047  -11.6766   -1.8327 H        1 ZINC000008219729    0.1100
76     H76    -6.1897  -10.6010   -1.5401 H        1 ZINC000008219729    0.0800
77     H77    -6.2945  -10.8633    0.2173 H        1 ZINC000008219729    0.0700
78     H78    -6.6530  -13.3481   -1.0764 H        1 ZINC000008219729    0.4000
79     H79    -5.8922  -15.0584   -1.6037 H        1 ZINC000008219729    0.3700
80     H80    -4.6206  -13.0004   -3.3417 H        1 ZINC000008219729    0.0400
81     H81    -3.7619  -14.1778   -4.3638 H        1 ZINC000008219729    0.0800
82     H82    -5.1887  -14.6851   -3.4283 H        1 ZINC000008219729    0.0500
83     H83    -1.5856  -13.6836   -1.3543 H        1 ZINC000008219729    0.0500
84     H84    -1.5640  -13.7210   -3.1337 H        1 ZINC000008219729    0.0800
85     H85    -2.4853  -12.4589   -2.2812 H        1 ZINC000008219729    0.0600
86     H86    -2.3252  -16.1274   -1.5366 H        1 ZINC000008219729    0.0500
87     H87    -3.8482  -16.5111   -2.3741 H        1 ZINC000008219729    0.0600
88     H88     3.0201  -18.1219   -7.2626 H        1 ZINC000008219729    0.0600
89     H89     1.9242  -18.5229   -8.6066 H        1 ZINC000008219729    0.1000
90     H90     5.4181  -15.4221   -6.1201 H        1 ZINC000008219729    0.2300
91     H91     8.7291  -11.9674   -5.4491 H        1 ZINC000008219729    0.4200
92     H92     9.3275  -10.6731   -6.3377 H        1 ZINC000008219729    0.4000
93     H93     7.0696  -10.7112  -10.2996 H        1 ZINC000008219729    0.2000
94     H94     5.8510  -14.7011  -11.0018 H        1 ZINC000008219729    0.3500
@<TRIPOS>BOND
1     1     2     1
2     1     64    1
3     1     65    1
4     1     66    1
5     2     3     1
6     2     4     1
7     2     8     1
8     4     5     1
9     4     6     1
10    4     7     1
11    8     9     1
12    8     67    1
13    8     68    1
14    9     10    2
15    9     11    1
16    11    12    1
17    12    13    1
18    12    69    1
19    12    70    1
20    13    14    1
21    13    71    1
22    13    72    1
23    14    15    am
24    14    73    1
25    15    16    2
26    15    17    1
27    17    18    1
28    17    74    1
29    17    75    1
30    18    19    1
31    18    76    1
32    18    77    1
33    19    20    am
34    19    78    1
35    20    21    2
36    20    22    1
37    22    23    1
38    22    24    1
39    22    25    1
40    24    79    1
41    25    26    1
42    25    27    1
43    25    28    1
44    26    80    1
45    26    81    1
46    26    82    1
47    27    83    1
48    27    84    1
49    27    85    1
50    28    29    1
51    28    86    1
52    28    87    1
53    29    30    1
54    30    31    ar
55    30    32    ar
56    30    33    1
57    33    34    1
58    34    35    ar
59    34    36    ar
60    34    37    1
61    37    38    1
62    38    39    1
63    38    88    1
64    38    89    1
65    39    40    1
66    39    57    1
67    39    41    1
68    41    42    1
69    42    43    1
70    42    44    1
71    42    54    1
72    44    53    1
73    44    45    1
74    45    46    2
75    45    90    1
76    46    47    1
77    47    53    ar
78    47    48    ar
79    48    49    1
80    48    50    ar
81    49    91    1
82    49    92    1
83    50    51    ar
84    51    52    ar
85    51    93    1
86    52    53    ar
87    54    55    1
88    54    56    1
89    54    57    1
90    56    94    1
91    57    58    1
92    57    59    1
93    59    60    1
94    60    61    ar
95    60    62    ar
96    60    63    ar
@<TRIPOS>SUBSTRUCTURE
1   ZINC000008219729 1     RESIDUE    1   A     ZIN   1
@<TRIPOS>MOLECULE
ZINC000008216701
94    96    1     0     0
SMALL
USER_CHARGES
@<TRIPOS>ATOM
1      C1      7.8853   -7.4571   17.0785 C.3      1 ZINC000008216701   -0.1500
2      C2      7.6795   -8.4205   15.9079 C.3      1 ZINC000008216701   -0.1100
3      C3      7.0653   -7.6651   14.7276 C.3      1 ZINC000008216701   -0.1100
4      H4      6.1489   -7.1708   15.0499 H        1 ZINC000008216701    0.1100
5      C5      8.0584   -6.6177   14.2200 C.3      1 ZINC000008216701   -0.1500
6      C6      6.7493   -8.6362   13.6194 C.2      1 ZINC000008216701    0.3300
7      O7      6.9915   -9.8167   13.7598 O.2      1 ZINC000008216701   -0.4500
8      S8      6.0484   -8.0736   12.1623 S.3      1 ZINC000008216701   -0.1200
9      C9      5.9093   -9.6348   11.2571 C.3      1 ZINC000008216701   -0.1200
10     C10     5.2900   -9.3740    9.8826 C.3      1 ZINC000008216701    0.1400
11     N11     5.1775  -10.6377    9.1499 N.am     1 ZINC000008216701   -0.7300
12     C12     4.6563  -10.6519    7.9071 C.2      1 ZINC000008216701    0.5200
13     O13     4.2805   -9.6186    7.3952 O.2      1 ZINC000008216701   -0.5300
14     C14     4.5405  -11.9518    7.1534 C.3      1 ZINC000008216701   -0.1500
15     C15     3.9212  -11.6910    5.7789 C.3      1 ZINC000008216701    0.1400
16     N16     3.8087  -12.9546    5.0463 N.am     1 ZINC000008216701   -0.7400
17     C17     3.2875  -12.9689    3.8034 C.2      1 ZINC000008216701    0.5000
18     O18     2.8266  -11.9530    3.3274 O.2      1 ZINC000008216701   -0.5300
19     C19     3.2775  -14.2470    3.0052 C.3      1 ZINC000008216701    0.1000
20     H20     2.2847  -14.4043    2.5835 H        1 ZINC000008216701    0.1400
21     O21     3.6119  -15.3438    3.8580 O.3      1 ZINC000008216701   -0.5500
22     C22     4.3027  -14.1497    1.8737 C.3      1 ZINC000008216701   -0.0900
23     C23     3.8642  -13.0726    0.8794 C.3      1 ZINC000008216701   -0.1400
24     C24     5.6696  -13.7819    2.4542 C.3      1 ZINC000008216701   -0.1400
25     C25     4.3994  -15.4974    1.1558 C.3      1 ZINC000008216701    0.1500
26     O26     5.3570  -15.4065    0.0990 O.3      1 ZINC000008216701   -0.7700
27     P27     5.7152  -16.6426   -0.8684 P.3      1 ZINC000008216701    2.2900
28     O28     6.1452  -17.8567   -0.0150 O.co2    1 ZINC000008216701   -1.1000
29     O29     4.4729  -17.0169   -1.7073 O.co2    1 ZINC000008216701   -1.1100
30     O30     6.9199  -16.2236   -1.8509 O.3      1 ZINC000008216701   -1.0900
31     P31     7.9234  -17.0462   -2.8039 P.3      1 ZINC000008216701    2.2900
32     O32     8.3618  -18.3450   -2.0912 O.co2    1 ZINC000008216701   -1.1000
33     O33     7.2046  -17.4010   -4.1247 O.co2    1 ZINC000008216701   -1.1000
34     O34     9.2193  -16.1457   -3.1233 O.3      1 ZINC000008216701   -0.7700
35     C35    10.3432  -16.6326   -3.8593 C.3      1 ZINC000008216701    0.1400
36     C36    11.3919  -15.5251   -3.9807 C.3      1 ZINC000008216701    0.0700
37     H37    10.9464  -14.6269   -4.4084 H        1 ZINC000008216701    0.1000
38     O38    11.9679  -15.2343   -2.6886 O.3      1 ZINC000008216701   -0.3500
39     C39    13.2276  -14.5867   -2.9705 C.3      1 ZINC000008216701    0.2600
40     H40    13.0654  -13.5442   -3.2442 H        1 ZINC000008216701    0.1200
41     N41    14.1178  -14.6759   -1.8105 N.pl3    1 ZINC000008216701   -0.4500
42     C42    14.0623  -15.6122   -0.8213 C.2      1 ZINC000008216701    0.2900
43     N43    15.0027  -15.3934    0.0513 N.2      1 ZINC000008216701   -0.4800
44     C44    15.7194  -14.3059   -0.3213 C.ar     1 ZINC000008216701   -0.1000
45     C45    16.8209  -13.6173    0.2144 C.ar     1 ZINC000008216701    0.5000
46     N46    17.4137  -14.0372    1.3923 N.pl3    1 ZINC000008216701   -0.8300
47     N47    17.2804  -12.5536   -0.4367 N.ar     1 ZINC000008216701   -0.6000
48     C48    16.7214  -12.1461   -1.5614 C.ar     1 ZINC000008216701    0.3400
49     N49    15.6883  -12.7593   -2.0997 N.ar     1 ZINC000008216701   -0.5400
50     C50    15.1640  -13.8359   -1.5235 C.ar     1 ZINC000008216701    0.3000
51     C51    13.8159  -15.3708   -4.1645 C.3      1 ZINC000008216701    0.0600
52     H52    14.4970  -16.1462   -3.8138 H        1 ZINC000008216701    0.0700
53     O53    14.4873  -14.4854   -5.0630 O.3      1 ZINC000008216701   -0.5000
54     C54    12.5791  -16.0013   -4.8467 C.3      1 ZINC000008216701    0.1500
55     H55    12.6483  -17.0890   -4.8328 H        1 ZINC000008216701    0.0800
56     O56    12.4508  -15.5262   -6.1883 O.3      1 ZINC000008216701   -0.7200
57     P57    12.4452  -16.5034   -7.4678 P.3      1 ZINC000008216701    2.1200
58     O58    13.7354  -17.3919   -7.4520 O.co2    1 ZINC000008216701   -1.1900
59     O59    11.1775  -17.4226   -7.4174 O.co2    1 ZINC000008216701   -1.1700
60     O60    12.4171  -15.6467   -8.7792 O.co2    1 ZINC000008216701   -1.1700
61     H61     6.9247   -7.0368   17.3764 H        1 ZINC000008216701    0.0600
62     H62     8.3229   -7.9952   17.9194 H        1 ZINC000008216701    0.0600
63     H63     8.5549   -6.6528   16.7738 H        1 ZINC000008216701    0.0600
64     H64     8.6401   -8.8408   15.6100 H        1 ZINC000008216701    0.0700
65     H65     7.0099   -9.2248   16.2126 H        1 ZINC000008216701    0.0700
66     H66     8.2871   -5.9153   15.0216 H        1 ZINC000008216701    0.0700
67     H67     8.9749   -7.1121   13.8978 H        1 ZINC000008216701    0.0600
68     H68     7.6209   -6.0796   13.3792 H        1 ZINC000008216701    0.0700
69     H69     6.9000  -10.0719   11.1322 H        1 ZINC000008216701    0.1000
70     H70     5.2761  -10.3238   11.8161 H        1 ZINC000008216701    0.1000
71     H71     4.2993   -8.9369   10.0074 H        1 ZINC000008216701    0.0800
72     H72     5.9233   -8.6851    9.3236 H        1 ZINC000008216701    0.0800
73     H73     5.4780  -11.4641    9.5593 H        1 ZINC000008216701    0.4000
74     H74     5.5312  -12.3889    7.0286 H        1 ZINC000008216701    0.1100
75     H75     3.9073  -12.6407    7.7124 H        1 ZINC000008216701    0.1000
76     H76     2.9305  -11.2539    5.9038 H        1 ZINC000008216701    0.0700
77     H77     4.5545  -11.0020    5.2199 H        1 ZINC000008216701    0.0800
78     H78     4.1092  -13.7810    5.4556 H        1 ZINC000008216701    0.4000
79     H79     4.4842  -15.2708    4.2688 H        1 ZINC000008216701    0.3700
80     H80     3.8705  -12.1000    1.3713 H        1 ZINC000008216701    0.0600
81     H81     4.5522  -13.0567    0.0341 H        1 ZINC000008216701    0.0800
82     H82     2.8576  -13.2939    0.5245 H        1 ZINC000008216701    0.0500
83     H83     5.9820  -14.5492    3.1625 H        1 ZINC000008216701    0.0500
84     H84     6.4000  -13.7125    1.6481 H        1 ZINC000008216701    0.0800
85     H85     5.6007  -12.8218    2.9656 H        1 ZINC000008216701    0.0400
86     H86     4.7118  -16.2648    1.8641 H        1 ZINC000008216701    0.0600
87     H87     3.4256  -15.7595    0.7422 H        1 ZINC000008216701    0.0500
88     H88    10.7757  -17.4871   -3.3390 H        1 ZINC000008216701    0.0600
89     H89    10.0209  -16.9384   -4.8546 H        1 ZINC000008216701    0.1000
90     H90    13.3436  -16.4166   -0.7691 H        1 ZINC000008216701    0.2300
91     H91    17.0694  -14.8152    1.8581 H        1 ZINC000008216701    0.4200
92     H92    18.1736  -13.5534    1.7521 H        1 ZINC000008216701    0.4000
93     H93    17.1266  -11.2769   -2.0580 H        1 ZINC000008216701    0.2000
94     H94    15.2358  -14.0175   -4.6681 H        1 ZINC000008216701    0.3500
@<TRIPOS>BOND
1     1     2     1
2     1     61    1
3     1     62    1
4     1     63    1
5     2     3     1
6     2     64    1
7     2     65    1
8     3     4     1
9     3     5     1
10    3     6     1
11    5     66    1
12    5     67    1
13    5     68    1
14    6     7     2
15    6     8     1
16    8     9     1
17    9     10    1
18    9     69    1
19    9     70    1
20    10    11    1
21    10    71    1
22    10    72    1
23    11    12    am
24    11    73    1
25    12    13    2
26    12    14    1
27    14    15    1
28    14    74    1
29    14    75    1
30    15    16    1
31    15    76    1
32    15    77    1
33    16    17    am
34    16    78    1
35    17    18    2
36    17    19    1
37    19    20    1
38    19    21    1
39    19    22    1
40    21    79    1
41    22    23    1
42    22    24    1
43    22    25    1
44    23    80    1
45    23    81    1
46    23    82    1
47    24    83    1
48    24    84    1
49    24    85    1
50    25    26    1
51    25    86    1
52    25    87    1
53    26    27    1
54    27    28    ar
55    27    29    ar
56    27    30    1
57    30    31    1
58    31    32    ar
59    31    33    ar
60    31    34    1
61    34    35    1
62    35    36    1
63    35    88    1
64    35    89    1
65    36    37    1
66    36    54    1
67    36    38    1
68    38    39    1
69    39    40    1
70    39    41    1
71    39    51    1
72    41    50    1
73    41    42    1
74    42    43    2
75    42    90    1
76    43    44    1
77    44    50    ar
78    44    45    ar
79    45    46    1
80    45    47    ar
81    46    91    1
82    46    92    1
83    47    48    ar
84    48    49    ar
85    48    93    1
86    49    50    ar
87    51    52    1
88    51    53    1
89    51    54    1
90    53    94    1
91    54    55    1
92    54    56    1
93    56    57    1
94    57    58    ar
95    57    59    ar
96    57    60    ar
@<TRIPOS>SUBSTRUCTURE
1   ZINC000008216701 1     RESIDUE    1   A     ZIN   1
@<TRIPOS>MOLECULE
ZINC000008551748
94    96    1     0     0
SMALL
USER_CHARGES
@<TRIPOS>ATOM
1      C1      7.8853   -7.4571   17.0785 C.3      1 ZINC000008551748   -0.1800
2      C2      7.6795   -8.4205   15.9079 C.3      1 ZINC000008551748    0.0400
3      H3      7.0099   -9.2248   16.2126 H        1 ZINC000008551748    0.1500
4      N4      8.9742   -8.9869   15.5065 N.4      1 ZINC000008551748   -0.6400
5      H5      9.3792   -9.4850   16.2848 H        1 ZINC000008551748    0.4400
6      H6      8.8385   -9.6222   14.7344 H        1 ZINC000008551748    0.4400
7      H7      9.5940   -8.2424   15.2244 H        1 ZINC000008551748    0.4300
8      C8      7.0653   -7.6651   14.7276 C.3      1 ZINC000008551748   -0.1800
9      C9      6.7493   -8.6362   13.6194 C.2      1 ZINC000008551748    0.3000
10     O10     6.9915   -9.8167   13.7598 O.2      1 ZINC000008551748   -0.4700
11     S11     6.0484   -8.0736   12.1623 S.3      1 ZINC000008551748   -0.0400
12     C12     5.9093   -9.6348   11.2571 C.3      1 ZINC000008551748   -0.1300
13     C13     5.2900   -9.3740    9.8826 C.3      1 ZINC000008551748    0.1300
14     N14     5.1775  -10.6377    9.1499 N.am     1 ZINC000008551748   -0.7400
15     C15     4.6563  -10.6519    7.9071 C.2      1 ZINC000008551748    0.5200
16     O16     4.2805   -9.6186    7.3952 O.2      1 ZINC000008551748   -0.5200
17     C17     4.5405  -11.9518    7.1534 C.3      1 ZINC000008551748   -0.1500
18     C18     3.9212  -11.6910    5.7789 C.3      1 ZINC000008551748    0.1400
19     N19     3.8087  -12.9546    5.0463 N.am     1 ZINC000008551748   -0.7400
20     C20     3.2875  -12.9689    3.8034 C.2      1 ZINC000008551748    0.5000
21     O21     2.8266  -11.9530    3.3274 O.2      1 ZINC000008551748   -0.5200
22     C22     3.2775  -14.2470    3.0052 C.3      1 ZINC000008551748    0.1000
23     H23     2.2847  -14.4043    2.5835 H        1 ZINC000008551748    0.1400
24     O24     3.6119  -15.3438    3.8580 O.3      1 ZINC000008551748   -0.5500
25     C25     4.3027  -14.1497    1.8737 C.3      1 ZINC000008551748   -0.0900
26     C26     3.8642  -13.0726    0.8794 C.3      1 ZINC000008551748   -0.1400
27     C27     5.6696  -13.7819    2.4542 C.3      1 ZINC000008551748   -0.1400
28     C28     4.3994  -15.4974    1.1558 C.3      1 ZINC000008551748    0.1500
29     O29     5.3570  -15.4065    0.0990 O.3      1 ZINC000008551748   -0.7700
30     P30     5.7152  -16.6426   -0.8684 P.3      1 ZINC000008551748    2.3000
31     O31     6.1452  -17.8567   -0.0150 O.co2    1 ZINC000008551748   -1.1100
32     O32     4.4729  -17.0169   -1.7073 O.co2    1 ZINC000008551748   -1.1100
33     O33     6.9199  -16.2236   -1.8509 O.3      1 ZINC000008551748   -1.0900
34     P34     7.9234  -17.0462   -2.8039 P.3      1 ZINC000008551748    2.2900
35     O35     7.1260  -18.1007   -3.6035 O.co2    1 ZINC000008551748   -1.1000
36     O36     8.9904  -17.7541   -1.9393 O.co2    1 ZINC000008551748   -1.1100
37     O37     8.6461  -16.0324   -3.8247 O.3      1 ZINC000008551748   -0.7700
38     C38     9.5181  -16.4694   -4.8690 C.3      1 ZINC000008551748    0.1400
39     C39    10.0297  -15.2558   -5.6476 C.3      1 ZINC000008551748    0.0700
40     H40     9.1934  -14.6529   -6.0015 H        1 ZINC000008551748    0.1000
41     O41    10.9076  -14.4614   -4.8206 O.3      1 ZINC000008551748   -0.3600
42     C42    11.6945  -13.6779   -5.7440 C.3      1 ZINC000008551748    0.2600
43     H43    11.1146  -12.8325   -6.1143 H        1 ZINC000008551748    0.1200
44     N44    12.9224  -13.2086   -5.0972 N.pl3    1 ZINC000008551748   -0.4500
45     C45    13.5378  -13.7805   -4.0236 C.2      1 ZINC000008551748    0.2900
46     N46    14.6048  -13.1044   -3.7105 N.2      1 ZINC000008551748   -0.4800
47     C47    14.7417  -12.0588   -4.5608 C.ar     1 ZINC000008551748   -0.1000
48     C48    15.6743  -11.0176   -4.7047 C.ar     1 ZINC000008551748    0.5000
49     N49    16.7564  -10.9130   -3.8484 N.pl3    1 ZINC000008551748   -0.8300
50     N50    15.4932  -10.1359   -5.6825 N.ar     1 ZINC000008551748   -0.6000
51     C51    14.4639  -10.2280   -6.5045 C.ar     1 ZINC000008551748    0.3400
52     N52    13.5655  -11.1855   -6.4074 N.ar     1 ZINC000008551748   -0.5400
53     C53    13.6671  -12.1164   -5.4645 C.ar     1 ZINC000008551748    0.3000
54     C54    12.0291  -14.6476   -6.8990 C.3      1 ZINC000008551748    0.0600
55     H55    13.0032  -15.1100   -6.7394 H        1 ZINC000008551748    0.0700
56     O56    12.0010  -13.9620   -8.1525 O.3      1 ZINC000008551748   -0.5000
57     C57    10.9063  -15.7097   -6.8359 C.3      1 ZINC000008551748    0.1500
58     H58    11.3252  -16.6975   -6.6443 H        1 ZINC000008551748    0.0800
59     O59    10.1522  -15.7138   -8.0497 O.3      1 ZINC000008551748   -0.7200
60     P60     9.9999  -17.0169   -8.9829 P.3      1 ZINC000008551748    2.1200
61     O61    11.4209  -17.5566   -9.3622 O.co2    1 ZINC000008551748   -1.1900
62     O62     9.2102  -18.1255   -8.2071 O.co2    1 ZINC000008551748   -1.1700
63     O63     9.2204  -16.6367  -10.2876 O.co2    1 ZINC000008551748   -1.1700
64     H64     6.9247   -7.0368   17.3764 H        1 ZINC000008551748    0.1100
65     H65     8.3229   -7.9952   17.9194 H        1 ZINC000008551748    0.0900
66     H66     8.5549   -6.6528   16.7738 H        1 ZINC000008551748    0.0900
67     H67     6.1489   -7.1708   15.0499 H        1 ZINC000008551748    0.1500
68     H68     7.7728   -6.9189   14.3660 H        1 ZINC000008551748    0.1300
69     H69     6.9000  -10.0719   11.1322 H        1 ZINC000008551748    0.1100
70     H70     5.2761  -10.3238   11.8161 H        1 ZINC000008551748    0.1100
71     H71     4.2993   -8.9369   10.0074 H        1 ZINC000008551748    0.0800
72     H72     5.9233   -8.6851    9.3236 H        1 ZINC000008551748    0.0800
73     H73     5.4780  -11.4641    9.5593 H        1 ZINC000008551748    0.4000
74     H74     5.5312  -12.3889    7.0286 H        1 ZINC000008551748    0.1100
75     H75     3.9073  -12.6407    7.7124 H        1 ZINC000008551748    0.1000
76     H76     2.9305  -11.2539    5.9038 H        1 ZINC000008551748    0.0700
77     H77     4.5545  -11.0020    5.2199 H        1 ZINC000008551748    0.0800
78     H78     4.1092  -13.7810    5.4556 H        1 ZINC000008551748    0.4000
79     H79     4.4842  -15.2709    4.2688 H        1 ZINC000008551748    0.3700
80     H80     3.8705  -12.1000    1.3713 H        1 ZINC000008551748    0.0600
81     H81     4.5522  -13.0567    0.0341 H        1 ZINC000008551748    0.0800
82     H82     2.8576  -13.2939    0.5245 H        1 ZINC000008551748    0.0600
83     H83     5.9820  -14.5492    3.1625 H        1 ZINC000008551748    0.0500
84     H84     6.4000  -13.7125    1.6481 H        1 ZINC000008551748    0.0800
85     H85     5.6007  -12.8218    2.9656 H        1 ZINC000008551748    0.0400
86     H86     4.7118  -16.2648    1.8641 H        1 ZINC000008551748    0.0600
87     H87     3.4256  -15.7595    0.7422 H        1 ZINC000008551748    0.0500
88     H88    10.3626  -17.0059   -4.4365 H        1 ZINC000008551748    0.0600
89     H89     8.9743  -17.1309   -5.5434 H        1 ZINC000008551748    0.1000
90     H90    13.1906  -14.6639   -3.5084 H        1 ZINC000008551748    0.2300
91     H91    16.8779  -11.5630   -3.1387 H        1 ZINC000008551748    0.4200
92     H92    17.3934  -10.1898   -3.9579 H        1 ZINC000008551748    0.4000
93     H93    14.3546   -9.4901   -7.2855 H        1 ZINC000008551748    0.2000
94     H94    12.6460  -13.2450   -8.2231 H        1 ZINC000008551748    0.3500
@<TRIPOS>BOND
1     1     2     1
2     1     64    1
3     1     65    1
4     1     66    1
5     2     3     1
6     2     4     1
7     2     8     1
8     4     5     1
9     4     6     1
10    4     7     1
11    8     9     1
12    8     67    1
13    8     68    1
14    9     10    2
15    9     11    1
16    11    12    1
17    12    13    1
18    12    69    1
19    12    70    1
20    13    14    1
21    13    71    1
22    13    72    1
23    14    15    am
24    14    73    1
25    15    16    2
26    15    17    1
27    17    18    1
28    17    74    1
29    17    75    1
30    18    19    1
31    18    76    1
32    18    77    1
33    19    20    am
34    19    78    1
35    20    21    2
36    20    22    1
37    22    23    1
38    22    24    1
39    22    25    1
40    24    79    1
41    25    26    1
42    25    27    1
43    25    28    1
44    26    80    1
45    26    81    1
46    26    82    1
47    27    83    1
48    27    84    1
49    27    85    1
50    28    29    1
51    28    86    1
52    28    87    1
53    29    30    1
54    30    31    ar
55    30    32    ar
56    30    33    1
57    33    34    1
58    34    35    ar
59    34    36    ar
60    34    37    1
61    37    38    1
62    38    39    1
63    38    88    1
64    38    89    1
65    39    40    1
66    39    57    1
67    39    41    1
68    41    42    1
69    42    43    1
70    42    44    1
71    42    54    1
72    44    53    1
73    44    45    1
74    45    46    2
75    45    90    1
76    46    47    1
77    47    53    ar
78    47    48    ar
79    48    49    1
80    48    50    ar
81    49    91    1
82    49    92    1
83    50    51    ar
84    51    52    ar
85    51    93    1
86    52    53    ar
87    54    55    1
88    54    56    1
89    54    57    1
90    56    94    1
91    57    58    1
92    57    59    1
93    59    60    1
94    60    61    ar
95    60    62    ar
96    60    63    ar
@<TRIPOS>SUBSTRUCTURE
1   ZINC000008551748 1     RESIDUE    1   A     ZIN   1
@<TRIPOS>MOLECULE
ZINC000008216708
94    96    1     0     0
SMALL
USER_CHARGES
@<TRIPOS>ATOM
1      C1      8.6791   -5.0703   15.6702 C.3      1 ZINC000008216708   -0.1500
2      C2      7.9965   -6.2090   14.9098 C.3      1 ZINC000008216708   -0.1100
3      C3      7.4199   -5.6726   13.5980 C.3      1 ZINC000008216708   -0.1100
4      H4      8.2087   -5.1811   13.0285 H        1 ZINC000008216708    0.1100
5      C5      6.3085   -4.6663   13.9032 C.3      1 ZINC000008216708   -0.1500
6      C6      6.8560   -6.8149   12.7928 C.2      1 ZINC000008216708    0.3300
7      O7      6.9100   -7.9470   13.2257 O.2      1 ZINC000008216708   -0.4500
8      S8      6.1392   -6.5150   11.2673 S.3      1 ZINC000008216708   -0.1200
9      C9      5.6684   -8.2003   10.8045 C.3      1 ZINC000008216708   -0.1200
10     C10     4.9886   -8.1818    9.4340 C.3      1 ZINC000008216708    0.1400
11     N11     4.6075   -9.5459    9.0594 N.am     1 ZINC000008216708   -0.7300
12     C12     3.9895   -9.7741    7.8836 C.2      1 ZINC000008216708    0.5200
13     O13     3.7489   -8.8502    7.1357 O.2      1 ZINC000008216708   -0.5300
14     C14     3.5975  -11.1773    7.4984 C.3      1 ZINC000008216708   -0.1500
15     C15     2.9177  -11.1588    6.1278 C.3      1 ZINC000008216708    0.1400
16     N16     2.5366  -12.5228    5.7532 N.am     1 ZINC000008216708   -0.7400
17     C17     1.9186  -12.7511    4.5775 C.2      1 ZINC000008216708    0.5000
18     O18     1.5963  -11.8195    3.8709 O.2      1 ZINC000008216708   -0.5200
19     C19     1.6281  -14.1638    4.1406 C.3      1 ZINC000008216708    0.1000
20     H20     2.0267  -14.3236    3.1388 H        1 ZINC000008216708    0.1400
21     O21     2.2429  -15.0793    5.0494 O.3      1 ZINC000008216708   -0.5500
22     C22     0.1155  -14.3937    4.1305 C.3      1 ZINC000008216708   -0.0900
23     C23    -0.4636  -14.0381    5.5013 C.3      1 ZINC000008216708   -0.1400
24     C24    -0.5275  -13.5094    3.0602 C.3      1 ZINC000008216708   -0.1400
25     C25    -0.1749  -15.8634    3.8198 C.3      1 ZINC000008216708    0.1500
26     O26    -1.5877  -16.0781    3.8102 O.3      1 ZINC000008216708   -0.7700
27     P27    -2.2545  -17.5138    3.5167 P.3      1 ZINC000008216708    2.2900
28     O28    -1.7381  -18.0547    2.1648 O.co2    1 ZINC000008216708   -1.1000
29     O29    -1.8739  -18.4986    4.6447 O.co2    1 ZINC000008216708   -1.1100
30     O30    -3.8559  -17.3595    3.4567 O.3      1 ZINC000008216708   -1.0900
31     P31    -5.0503  -18.2957    2.9188 P.3      1 ZINC000008216708    2.2900
32     O32    -4.6188  -18.9737    1.5993 O.co2    1 ZINC000008216708   -1.1000
33     O33    -5.3708  -19.3784    3.9733 O.co2    1 ZINC000008216708   -1.1000
34     O34    -6.3602  -17.3970    2.6570 O.3      1 ZINC000008216708   -0.7700
35     C35    -7.5583  -17.9177    2.0777 C.3      1 ZINC000008216708    0.1400
36     C36    -8.5999  -16.8021    1.9711 C.3      1 ZINC000008216708    0.0700
37     H37    -8.7535  -16.3331    2.9430 H        1 ZINC000008216708    0.1000
38     O38    -8.1853  -15.8185    0.9982 O.3      1 ZINC000008216708   -0.3500
39     C39    -9.3944  -15.1260    0.6182 C.3      1 ZINC000008216708    0.2600
40     H40    -9.6718  -14.3997    1.3822 H        1 ZINC000008216708    0.1200
41     N41    -9.2165  -14.4614   -0.6752 N.pl3    1 ZINC000008216708   -0.4500
42     C42    -8.3198  -14.8059   -1.6425 C.2      1 ZINC000008216708    0.2900
43     N43    -8.4337  -14.0032   -2.6605 N.2      1 ZINC000008216708   -0.4800
44     C44    -9.4078  -13.0952   -2.4120 C.ar     1 ZINC000008216708   -0.1000
45     C45    -9.9572  -12.0155   -3.1240 C.ar     1 ZINC000008216708    0.5000
46     N46    -9.4919  -11.6894   -4.3858 N.pl3    1 ZINC000008216708   -0.8300
47     N47   -10.9344  -11.3151   -2.5574 N.ar     1 ZINC000008216708   -0.6000
48     C48   -11.3849  -11.6193   -1.3541 C.ar     1 ZINC000008216708    0.3400
49     N49   -10.9005  -12.6210   -0.6506 N.ar     1 ZINC000008216708   -0.5400
50     C50    -9.9259  -13.3819   -1.1376 C.ar     1 ZINC000008216708    0.2900
51     C51   -10.4670  -16.2328    0.5139 C.3      1 ZINC000008216708    0.0600
52     H52   -10.5564  -16.5822   -0.5147 H        1 ZINC000008216708    0.0700
53     O53   -11.7268  -15.7557    0.9905 O.3      1 ZINC000008216708   -0.5000
54     C54    -9.9332  -17.3614    1.4271 C.3      1 ZINC000008216708    0.1500
55     H55    -9.7578  -18.2691    0.8497 H        1 ZINC000008216708    0.0800
56     O56   -10.8486  -17.6172    2.4941 O.3      1 ZINC000008216708   -0.7200
57     P57   -11.5219  -19.0580    2.7454 P.3      1 ZINC000008216708    2.1200
58     O58   -12.2468  -19.5305    1.4394 O.co2    1 ZINC000008216708   -1.1900
59     O59   -10.4110  -20.0936    3.1299 O.co2    1 ZINC000008216708   -1.1700
60     O60   -12.5629  -18.9518    3.9113 O.co2    1 ZINC000008216708   -1.1700
61     H61     7.9501   -4.2894   15.8863 H        1 ZINC000008216708    0.0600
62     H62     9.0899   -5.4525   16.6047 H        1 ZINC000008216708    0.0600
63     H63     9.4837   -4.6579   15.0614 H        1 ZINC000008216708    0.0600
64     H64     8.7255   -6.9900   14.6937 H        1 ZINC000008216708    0.0700
65     H65     7.1919   -6.6214   15.5186 H        1 ZINC000008216708    0.0700
66     H66     5.8977   -4.2841   12.9687 H        1 ZINC000008216708    0.0700
67     H67     5.5197   -5.1577   14.4728 H        1 ZINC000008216708    0.0600
68     H68     6.7164   -3.8401   14.4856 H        1 ZINC000008216708    0.0700
69     H69     6.5590   -8.8271   10.7599 H        1 ZINC000008216708    0.1000
70     H70     4.9785   -8.6016   11.5469 H        1 ZINC000008216708    0.1000
71     H71     4.0979   -7.5550    9.4786 H        1 ZINC000008216708    0.0800
72     H72     5.6785   -7.7805    8.6916 H        1 ZINC000008216708    0.0800
73     H73     4.7999  -10.2848    9.6576 H        1 ZINC000008216708    0.4000
74     H74     4.4881  -11.8041    7.4537 H        1 ZINC000008216708    0.1000
75     H75     2.9076  -11.5786    8.2407 H        1 ZINC000008216708    0.1100
76     H76     2.0271  -10.5320    6.1724 H        1 ZINC000008216708    0.0800
77     H77     3.6076  -10.7574    5.3854 H        1 ZINC000008216708    0.0700
78     H78     2.7291  -13.2617    6.3515 H        1 ZINC000008216708    0.4000
79     H79     1.9352  -14.9939    5.9622 H        1 ZINC000008216708    0.3700
80     H80    -0.2567  -12.9911    5.7226 H        1 ZINC000008216708    0.0400
81     H81    -1.5412  -14.2019    5.4940 H        1 ZINC000008216708    0.0800
82     H82    -0.0055  -14.6681    6.2637 H        1 ZINC000008216708    0.0500
83     H83    -0.0355  -13.6815    2.1029 H        1 ZINC000008216708    0.0500
84     H84    -1.5860  -13.7549    2.9740 H        1 ZINC000008216708    0.0800
85     H85    -0.4192  -12.4618    3.3412 H        1 ZINC000008216708    0.0600
86     H86     0.2377  -16.1167    2.8432 H        1 ZINC000008216708    0.0500
87     H87     0.2832  -16.4933    4.5822 H        1 ZINC000008216708    0.0600
88     H88    -7.3412  -18.3083    1.0835 H        1 ZINC000008216708    0.0600
89     H89    -7.9471  -18.7190    2.7060 H        1 ZINC000008216708    0.1000
90     H90    -7.6180  -15.6239   -1.5738 H        1 ZINC000008216708    0.2300
91     H91    -8.7784  -12.2084   -4.7888 H        1 ZINC000008216708    0.4200
92     H92    -9.8793  -10.9417   -4.8673 H        1 ZINC000008216708    0.4000
93     H93   -12.1804  -11.0238   -0.9310 H        1 ZINC000008216708    0.2000
94     H94   -12.0792  -15.0075    0.4894 H        1 ZINC000008216708    0.3500
@<TRIPOS>BOND
1     1     2     1
2     1     61    1
3     1     62    1
4     1     63    1
5     2     3     1
6     2     64    1
7     2     65    1
8     3     4     1
9     3     5     1
10    3     6     1
11    5     66    1
12    5     67    1
13    5     68    1
14    6     7     2
15    6     8     1
16    8     9     1
17    9     10    1
18    9     69    1
19    9     70    1
20    10    11    1
21    10    71    1
22    10    72    1
23    11    12    am
24    11    73    1
25    12    13    2
26    12    14    1
27    14    15    1
28    14    74    1
29    14    75    1
30    15    16    1
31    15    76    1
32    15    77    1
33    16    17    am
34    16    78    1
35    17    18    2
36    17    19    1
37    19    20    1
38    19    21    1
39    19    22    1
40    21    79    1
41    22    23    1
42    22    24    1
43    22    25    1
44    23    80    1
45    23    81    1
46    23    82    1
47    24    83    1
48    24    84    1
49    24    85    1
50    25    26    1
51    25    86    1
52    25    87    1
53    26    27    1
54    27    28    ar
55    27    29    ar
56    27    30    1
57    30    31    1
58    31    32    ar
59    31    33    ar
60    31    34    1
61    34    35    1
62    35    36    1
63    35    88    1
64    35    89    1
65    36    37    1
66    36    54    1
67    36    38    1
68    38    39    1
69    39    40    1
70    39    41    1
71    39    51    1
72    41    50    1
73    41    42    1
74    42    43    2
75    42    90    1
76    43    44    1
77    44    50    ar
78    44    45    ar
79    45    46    1
80    45    47    ar
81    46    91    1
82    46    92    1
83    47    48    ar
84    48    49    ar
85    48    93    1
86    49    50    ar
87    51    52    1
88    51    53    1
89    51    54    1
90    53    94    1
91    54    55    1
92    54    56    1
93    56    57    1
94    57    58    ar
95    57    59    ar
96    57    60    ar
@<TRIPOS>SUBSTRUCTURE
1   ZINC000008216708 1     RESIDUE    1   A     ZIN   1
@<TRIPOS>MOLECULE
ZINC000008216374
89    91    1     0     0
SMALL
USER_CHARGES
@<TRIPOS>ATOM
1      C1     -7.2578    1.1740  -14.5141 C.3      1 ZINC000008216374   -0.1800
2      C2     -8.3837    2.1135  -14.0776 C.3      1 ZINC000008216374    0.0800
3      H3     -7.9562    3.0443  -13.7047 H        1 ZINC000008216374    0.0900
4      O4     -9.2313    2.3922  -15.1938 O.3      1 ZINC000008216374   -0.5500
5      C5     -9.1899    1.4582  -12.9859 C.2      1 ZINC000008216374    0.3300
6      O6    -10.3517    1.1677  -13.1809 O.2      1 ZINC000008216374   -0.4200
7      S7     -8.4665    1.1237  -11.4708 S.3      1 ZINC000008216374   -0.1000
8      C8     -9.8697    0.3683  -10.6125 C.3      1 ZINC000008216374   -0.1200
9      C9     -9.4490   -0.0246   -9.1949 C.3      1 ZINC000008216374    0.1400
10     N10   -10.5847   -0.6359   -8.5002 N.am     1 ZINC000008216374   -0.7300
11     C11   -10.4467   -1.0629   -7.2293 C.2      1 ZINC000008216374    0.5200
12     O12    -9.3824   -0.9409   -6.6608 O.2      1 ZINC000008216374   -0.5300
13     C13   -11.6150   -1.6918   -6.5147 C.3      1 ZINC000008216374   -0.1500
14     C14   -11.1943   -2.0847   -5.0971 C.3      1 ZINC000008216374    0.1400
15     N15   -12.3300   -2.6960   -4.4024 N.am     1 ZINC000008216374   -0.7400
16     C16   -12.1920   -3.1230   -3.1315 C.2      1 ZINC000008216374    0.5000
17     O17   -11.1053   -3.0868   -2.5943 O.2      1 ZINC000008216374   -0.5300
18     C18   -13.3881   -3.6453   -2.3781 C.3      1 ZINC000008216374    0.1000
19     H19   -13.1328   -4.5923   -1.9027 H        1 ZINC000008216374    0.1400
20     O20   -14.4730   -3.8454   -3.2864 O.3      1 ZINC000008216374   -0.5500
21     C21   -13.7991   -2.6319   -1.3080 C.3      1 ZINC000008216374   -0.0900
22     C22   -12.6959   -2.5285   -0.2530 C.3      1 ZINC000008216374   -0.1400
23     C23   -14.0138   -1.2633   -1.9574 C.3      1 ZINC000008216374   -0.1400
24     C24   -15.0988   -3.0907   -0.6436 C.3      1 ZINC000008216374    0.1500
25     O25   -15.4827   -2.1442    0.3558 O.3      1 ZINC000008216374   -0.7700
26     P26   -16.8065   -2.3090    1.2571 P.3      1 ZINC000008216374    2.2900
27     O27   -18.0379   -2.4729    0.3385 O.co2    1 ZINC000008216374   -1.1000
28     O28   -16.6651   -3.5573    2.1564 O.co2    1 ZINC000008216374   -1.1100
29     O29   -16.9945   -1.0022    2.1786 O.3      1 ZINC000008216374   -1.0900
30     P30   -18.2177   -0.4081    3.0406 P.3      1 ZINC000008216374    2.2900
31     O31   -19.5372   -0.5949    2.2589 O.co2    1 ZINC000008216374   -1.1000
32     O32   -18.3080   -1.1558    4.3896 O.co2    1 ZINC000008216374   -1.1000
33     O33   -17.9717    1.1598    3.3114 O.3      1 ZINC000008216374   -0.7700
34     C34   -18.9302    1.9971    3.9611 C.3      1 ZINC000008216374    0.1400
35     C35   -18.3811    3.4221    4.0563 C.3      1 ZINC000008216374    0.0700
36     H36   -17.4045    3.4200    4.5405 H        1 ZINC000008216374    0.1000
37     O37   -18.2896    4.0145    2.7424 O.3      1 ZINC000008216374   -0.3500
38     C38   -18.2547    5.4404    2.9695 C.3      1 ZINC000008216374    0.2600
39     H39   -17.2592    5.7497    3.2877 H        1 ZINC000008216374    0.1200
40     N40   -18.6474    6.1599    1.7553 N.pl3    1 ZINC000008216374   -0.4500
41     C41   -19.4142    5.6705    0.7400 C.2      1 ZINC000008216374    0.2900
42     N42   -19.5660    6.5783   -0.1800 N.2      1 ZINC000008216374   -0.4800
43     C43   -18.9083    7.7049    0.1854 C.ar     1 ZINC000008216374   -0.1000
44     C44   -18.7231    8.9723   -0.3923 C.ar     1 ZINC000008216374    0.5000
45     N45   -19.2874    9.2814   -1.6175 N.pl3    1 ZINC000008216374   -0.8300
46     N46   -17.9935    9.8676    0.2656 N.ar     1 ZINC000008216374   -0.6000
47     C47   -17.4516    9.5816    1.4353 C.ar     1 ZINC000008216374    0.3400
48     N48   -17.5980    8.4083    2.0140 N.ar     1 ZINC000008216374   -0.5400
49     C49   -18.3159    7.4520    1.4343 C.ar     1 ZINC000008216374    0.3000
50     C50   -19.2805    5.6854    4.0982 C.3      1 ZINC000008216374    0.0600
51     H51   -20.2504    5.9558    3.6808 H        1 ZINC000008216374    0.0700
52     O52   -18.8159    6.7060    4.9840 O.3      1 ZINC000008216374   -0.5000
53     C53   -19.3642    4.3264    4.8323 C.3      1 ZINC000008216374    0.1500
54     H54   -20.3757    3.9242    4.7771 H        1 ZINC000008216374    0.0800
55     O55   -18.9562    4.4672    6.1945 O.3      1 ZINC000008216374   -0.7200
56     P56   -19.9094    4.0967    7.4381 P.3      1 ZINC000008216374    2.1200
57     O57   -21.2589    4.8827    7.3140 O.co2    1 ZINC000008216374   -1.1900
58     O58   -20.1994    2.5571    7.4332 O.co2    1 ZINC000008216374   -1.1700
59     O59   -19.1973    4.4897    8.7771 O.co2    1 ZINC000008216374   -1.1700
60     H60    -6.6747    1.6480  -15.3037 H        1 ZINC000008216374    0.0800
61     H61    -6.6113    0.9614  -13.6627 H        1 ZINC000008216374    0.0800
62     H62    -7.6854    0.2433  -14.8870 H        1 ZINC000008216374    0.0700
63     H63    -8.7781    2.8155  -15.9358 H        1 ZINC000008216374    0.3900
64     H64   -10.6921    1.0820  -10.5627 H        1 ZINC000008216374    0.1100
65     H65   -10.1920   -0.5203  -11.1552 H        1 ZINC000008216374    0.1000
66     H66    -8.6265   -0.7382   -9.2446 H        1 ZINC000008216374    0.0800
67     H67    -9.1266    0.8640   -8.6521 H        1 ZINC000008216374    0.0800
68     H68   -11.4359   -0.7335   -8.9549 H        1 ZINC000008216374    0.4000
69     H69   -12.4374   -0.9781   -6.4650 H        1 ZINC000008216374    0.1100
70     H70   -11.9373   -2.5804   -7.0575 H        1 ZINC000008216374    0.1000
71     H71   -10.3718   -2.7983   -5.1469 H        1 ZINC000008216374    0.0700
72     H72   -10.8719   -1.1961   -4.5544 H        1 ZINC000008216374    0.0800
73     H73   -13.1812   -2.7936   -4.8571 H        1 ZINC000008216374    0.4000
74     H74   -14.7539   -3.0427   -3.7465 H        1 ZINC000008216374    0.3700
75     H75   -11.7916   -2.1276   -0.7110 H        1 ZINC000008216374    0.0600
76     H76   -13.0212   -1.8660    0.5491 H        1 ZINC000008216374    0.0800
77     H77   -12.4888   -3.5180    0.1544 H        1 ZINC000008216374    0.0500
78     H78   -14.7998   -1.3370   -2.7090 H        1 ZINC000008216374    0.0500
79     H79   -14.3066   -0.5414   -1.1951 H        1 ZINC000008216374    0.0800
80     H80   -13.0879   -0.9365   -2.4307 H        1 ZINC000008216374    0.0400
81     H81   -15.8847   -3.1644   -1.3952 H        1 ZINC000008216374    0.0600
82     H82   -14.9458   -4.0657   -0.1810 H        1 ZINC000008216374    0.0500
83     H83   -19.8566    2.0024    3.3867 H        1 ZINC000008216374    0.0600
84     H84   -19.1261    1.6155    4.9631 H        1 ZINC000008216374    0.1000
85     H85   -19.8332    4.6757    0.7040 H        1 ZINC000008216374    0.2300
86     H86   -19.8181    8.6195   -2.0878 H        1 ZINC000008216374    0.4200
87     H87   -19.1523   10.1599   -2.0059 H        1 ZINC000008216374    0.4000
88     H88   -16.8661   10.3386    1.9358 H        1 ZINC000008216374    0.2000
89     H89   -18.6883    7.5660    4.5608 H        1 ZINC000008216374    0.3500
@<TRIPOS>BOND
1     1     2     1
2     1     60    1
3     1     61    1
4     1     62    1
5     2     3     1
6     2     4     1
7     2     5     1
8     4     63    1
9     5     6     2
10    5     7     1
11    7     8     1
12    8     9     1
13    8     64    1
14    8     65    1
15    9     10    1
16    9     66    1
17    9     67    1
18    10    11    am
19    10    68    1
20    11    12    2
21    11    13    1
22    13    14    1
23    13    69    1
24    13    70    1
25    14    15    1
26    14    71    1
27    14    72    1
28    15    16    am
29    15    73    1
30    16    17    2
31    16    18    1
32    18    19    1
33    18    20    1
34    18    21    1
35    20    74    1
36    21    22    1
37    21    23    1
38    21    24    1
39    22    75    1
40    22    76    1
41    22    77    1
42    23    78    1
43    23    79    1
44    23    80    1
45    24    25    1
46    24    81    1
47    24    82    1
48    25    26    1
49    26    27    ar
50    26    28    ar
51    26    29    1
52    29    30    1
53    30    31    ar
54    30    32    ar
55    30    33    1
56    33    34    1
57    34    35    1
58    34    83    1
59    34    84    1
60    35    36    1
61    35    53    1
62    35    37    1
63    37    38    1
64    38    39    1
65    38    40    1
66    38    50    1
67    40    49    1
68    40    41    1
69    41    42    2
70    41    85    1
71    42    43    1
72    43    49    ar
73    43    44    ar
74    44    45    1
75    44    46    ar
76    45    86    1
77    45    87    1
78    46    47    ar
79    47    48    ar
80    47    88    1
81    48    49    ar
82    50    51    1
83    50    52    1
84    50    53    1
85    52    89    1
86    53    54    1
87    53    55    1
88    55    56    1
89    56    57    ar
90    56    58    ar
91    56    59    ar
@<TRIPOS>SUBSTRUCTURE
1   ZINC000008216374 1     RESIDUE    1   A     ZIN   1
@<TRIPOS>MOLECULE
ZINC000008219724
94    96    1     0     0
SMALL
USER_CHARGES
@<TRIPOS>ATOM
1      C1    -18.7520   -7.3856   -1.7149 C.3      1 ZINC000008219724   -0.1800
2      C2    -17.5886   -8.3749   -1.8071 C.3      1 ZINC000008219724    0.0400
3      H3    -17.6652   -9.1022   -0.9989 H        1 ZINC000008219724    0.1500
4      N4    -17.6396   -9.0717   -3.0994 N.4      1 ZINC000008219724   -0.6400
5      H5    -17.5687   -8.3985   -3.8475 H        1 ZINC000008219724    0.4300
6      H6    -16.8724   -9.7242   -3.1602 H        1 ZINC000008219724    0.4400
7      H7    -18.5128   -9.5711   -3.1779 H        1 ZINC000008219724    0.4400
8      C8    -16.2645   -7.6177   -1.6880 C.3      1 ZINC000008219724   -0.1800
9      C9    -15.1240   -8.6022   -1.6554 C.2      1 ZINC000008219724    0.3000
10     O10   -15.3482   -9.7927   -1.7210 O.2      1 ZINC000008219724   -0.4700
11     S11   -13.5119   -8.0406   -1.5257 S.3      1 ZINC000008219724   -0.0400
12     C12   -12.6273   -9.6197   -1.5353 C.3      1 ZINC000008219724   -0.1300
13     C13   -11.1231   -9.3623   -1.4257 C.3      1 ZINC000008219724    0.1300
14     N14   -10.4071  -10.6404   -1.4335 N.am     1 ZINC000008219724   -0.7400
15     C15    -9.0623  -10.6600   -1.3462 C.2      1 ZINC000008219724    0.5200
16     O16    -8.4449   -9.6195   -1.2613 O.2      1 ZINC000008219724   -0.5200
17     C17    -8.3258  -11.9747   -1.3542 C.3      1 ZINC000008219724   -0.1500
18     C18    -6.8216  -11.7173   -1.2446 C.3      1 ZINC000008219724    0.1400
19     N19    -6.1056  -12.9954   -1.2524 N.am     1 ZINC000008219724   -0.7400
20     C20    -4.7608  -13.0150   -1.1651 C.2      1 ZINC000008219724    0.5000
21     O21    -4.1373  -11.9747   -1.1740 O.2      1 ZINC000008219724   -0.5200
22     C22    -4.0318  -14.3295   -1.0566 C.3      1 ZINC000008219724    0.1000
23     H23    -3.2095  -14.3491   -1.7718 H        1 ZINC000008219724    0.1400
24     O24    -4.9351  -15.3999   -1.3398 O.3      1 ZINC000008219724   -0.5500
25     C25    -3.4787  -14.4904    0.3609 C.3      1 ZINC000008219724   -0.0900
26     C26    -2.4022  -13.4324    0.6114 C.3      1 ZINC000008219724   -0.1400
27     C27    -4.6121  -14.3146    1.3735 C.3      1 ZINC000008219724   -0.1400
28     C28    -2.8688  -15.8851    0.5150 C.3      1 ZINC000008219724    0.1500
29     O29    -2.3523  -16.0354    1.8389 O.3      1 ZINC000008219724   -0.7700
30     P30    -1.6370  -17.3829    2.3533 P.3      1 ZINC000008219724    2.2900
31     O31    -2.5826  -18.5846    2.1323 O.co2    1 ZINC000008219724   -1.1000
32     O32    -0.3283  -17.6052    1.5629 O.co2    1 ZINC000008219724   -1.1100
33     O33    -1.3001  -17.2465    3.9218 O.3      1 ZINC000008219724   -1.0900
34     P34    -0.8895  -18.2947    5.0728 P.3      1 ZINC000008219724    2.2900
35     O35    -1.7124  -19.5917    4.9055 O.co2    1 ZINC000008219724   -1.1000
36     O36     0.6161  -18.6217    4.9582 O.co2    1 ZINC000008219724   -1.1000
37     O37    -1.1905  -17.6507    6.5173 O.3      1 ZINC000008219724   -0.7700
38     C38    -1.0306  -18.3729    7.7400 C.3      1 ZINC000008219724    0.1400
39     C39    -1.3999  -17.4692    8.9181 C.3      1 ZINC000008219724    0.0700
40     H40    -0.8255  -16.5436    8.8800 H        1 ZINC000008219724    0.1000
41     O41    -2.8155  -17.1833    8.9080 O.3      1 ZINC000008219724   -0.3600
42     C42    -3.1317  -16.7790   10.2580 C.3      1 ZINC000008219724    0.2600
43     H43    -2.8229  -15.7475   10.4273 H        1 ZINC000008219724    0.1200
44     N44    -4.5666  -16.9292   10.5125 N.pl3    1 ZINC000008219724   -0.4500
45     C45    -5.4189  -17.7663    9.8559 C.2      1 ZINC000008219724    0.2900
46     N46    -6.6216  -17.6436   10.3377 N.2      1 ZINC000008219724   -0.4800
47     C47    -6.6176  -16.7227   11.3312 C.ar     1 ZINC000008219724   -0.1000
48     C48    -7.5948  -16.1904   12.1892 C.ar     1 ZINC000008219724    0.5000
49     N49    -8.9100  -16.6144   12.1139 N.pl3    1 ZINC000008219724   -0.8300
50     N50    -7.2265  -15.2706   13.0751 N.ar     1 ZINC000008219724   -0.6000
51     C51    -5.9739  -14.8604   13.1544 C.ar     1 ZINC000008219724    0.3400
52     N52    -5.0256  -15.3302   12.3715 N.ar     1 ZINC000008219724   -0.5400
53     C53    -5.2978  -16.2575   11.4593 C.ar     1 ZINC000008219724    0.3000
54     C54    -2.3203  -17.7377   11.1574 C.3      1 ZINC000008219724    0.0600
55     H55    -2.9321  -18.5879   11.4590 H        1 ZINC000008219724    0.0700
56     O56    -1.8240  -17.0472   12.3058 O.3      1 ZINC000008219724   -0.5000
57     C57    -1.1520  -18.2012   10.2557 C.3      1 ZINC000008219724    0.1500
58     H58    -1.1865  -19.2809   10.1107 H        1 ZINC000008219724    0.0800
59     O59     0.1015  -17.8130   10.8214 O.3      1 ZINC000008219724   -0.7200
60     P60     1.2565  -18.8684   11.2012 P.3      1 ZINC000008219724    2.1200
61     O61     0.6729  -19.9570   12.1650 O.co2    1 ZINC000008219724   -1.1900
62     O62     1.7856  -19.5556    9.8965 O.co2    1 ZINC000008219724   -1.1700
63     O63     2.4350  -18.1196   11.9118 O.co2    1 ZINC000008219724   -1.1700
64     H64   -19.6953   -7.9250   -1.7998 H        1 ZINC000008219724    0.0900
65     H65   -18.7141   -6.8685   -0.7561 H        1 ZINC000008219724    0.1100
66     H66   -18.6754   -6.6582   -2.5232 H        1 ZINC000008219724    0.0800
67     H67   -16.1471   -6.9540   -2.5446 H        1 ZINC000008219724    0.1300
68     H68   -16.2634   -7.0299   -0.7700 H        1 ZINC000008219724    0.1500
69     H69   -12.9549  -10.2248   -0.6900 H        1 ZINC000008219724    0.1100
70     H70   -12.8386  -10.1489   -2.4645 H        1 ZINC000008219724    0.1100
71     H71   -10.7955   -8.7572   -2.2711 H        1 ZINC000008219724    0.0800
72     H72   -10.9118   -8.8331   -0.4965 H        1 ZINC000008219724    0.0800
73     H73   -10.9009  -11.4725   -1.5015 H        1 ZINC000008219724    0.4000
74     H74    -8.6533  -12.5798   -0.5089 H        1 ZINC000008219724    0.1100
75     H75    -8.5371  -12.5039   -2.2834 H        1 ZINC000008219724    0.1000
76     H76    -6.4940  -11.1122   -2.0900 H        1 ZINC000008219724    0.0700
77     H77    -6.6102  -11.1881   -0.3155 H        1 ZINC000008219724    0.0800
78     H78    -6.5993  -13.8275   -1.3204 H        1 ZINC000008219724    0.4000
79     H79    -5.6932  -15.4437   -0.7410 H        1 ZINC000008219724    0.3700
80     H80    -2.8530  -12.4406    0.5785 H        1 ZINC000008219724    0.0600
81     H81    -1.9538  -13.5954    1.5915 H        1 ZINC000008219724    0.0800
82     H82    -1.6330  -13.5077   -0.1572 H        1 ZINC000008219724    0.0600
83     H83    -5.3790  -15.0683    1.1950 H        1 ZINC000008219724    0.0500
84     H84    -4.2181  -14.4292    2.3833 H        1 ZINC000008219724    0.0800
85     H85    -5.0466  -13.3210    1.2637 H        1 ZINC000008219724    0.0400
86     H86    -3.6358  -16.6388    0.3365 H        1 ZINC000008219724    0.0600
87     H87    -2.0614  -16.0103   -0.2064 H        1 ZINC000008219724    0.0500
88     H88    -1.6824  -19.2465    7.7339 H        1 ZINC000008219724    0.0600
89     H89     0.0063  -18.6939    7.8394 H        1 ZINC000008219724    0.1000
90     H90    -5.1377  -18.4326    9.0538 H        1 ZINC000008219724    0.2300
91     H91    -9.1663  -17.2866   11.4633 H        1 ZINC000008219724    0.4200
92     H92    -9.5754  -16.2394   12.7118 H        1 ZINC000008219724    0.4000
93     H93    -5.7179  -14.1111   13.8888 H        1 ZINC000008219724    0.2000
94     H94    -2.5156  -16.6832   12.8752 H        1 ZINC000008219724    0.3500
@<TRIPOS>BOND
1     1     2     1
2     1     64    1
3     1     65    1
4     1     66    1
5     2     3     1
6     2     4     1
7     2     8     1
8     4     5     1
9     4     6     1
10    4     7     1
11    8     9     1
12    8     67    1
13    8     68    1
14    9     10    2
15    9     11    1
16    11    12    1
17    12    13    1
18    12    69    1
19    12    70    1
20    13    14    1
21    13    71    1
22    13    72    1
23    14    15    am
24    14    73    1
25    15    16    2
26    15    17    1
27    17    18    1
28    17    74    1
29    17    75    1
30    18    19    1
31    18    76    1
32    18    77    1
33    19    20    am
34    19    78    1
35    20    21    2
36    20    22    1
37    22    23    1
38    22    24    1
39    22    25    1
40    24    79    1
41    25    26    1
42    25    27    1
43    25    28    1
44    26    80    1
45    26    81    1
46    26    82    1
47    27    83    1
48    27    84    1
49    27    85    1
50    28    29    1
51    28    86    1
52    28    87    1
53    29    30    1
54    30    31    ar
55    30    32    ar
56    30    33    1
57    33    34    1
58    34    35    ar
59    34    36    ar
60    34    37    1
61    37    38    1
62    38    39    1
63    38    88    1
64    38    89    1
65    39    40    1
66    39    57    1
67    39    41    1
68    41    42    1
69    42    43    1
70    42    44    1
71    42    54    1
72    44    53    1
73    44    45    1
74    45    46    2
75    45    90    1
76    46    47    1
77    47    53    ar
78    47    48    ar
79    48    49    1
80    48    50    ar
81    49    91    1
82    49    92    1
83    50    51    ar
84    51    52    ar
85    51    93    1
86    52    53    ar
87    54    55    1
88    54    56    1
89    54    57    1
90    56    94    1
91    57    58    1
92    57    59    1
93    59    60    1
94    60    61    ar
95    60    62    ar
96    60    63    ar
@<TRIPOS>SUBSTRUCTURE
1   ZINC000008219724 1     RESIDUE    1   A     ZIN   1
@<TRIPOS>MOLECULE
ZINC000230051742
90    92    1     0     0
SMALL
USER_CHARGES
@<TRIPOS>ATOM
1      C1     -7.6146    2.4005  -14.0547 C.3      1 ZINC000230051742   -0.1200
2      C2     -8.8004    3.2526  -13.5977 C.3      1 ZINC000230051742   -0.1900
3      H3     -8.4346    4.1937  -13.1869 H        1 ZINC000230051742    0.1000
4      C4     -9.6998    3.5337  -14.7737 C.2      1 ZINC000230051742    0.5000
5      O5    -10.8618    3.1649  -14.7543 O.co2    1 ZINC000230051742   -0.6600
6      O6     -9.2655    4.1298  -15.7445 O.co2    1 ZINC000230051742   -0.7000
7      C7     -9.5745    2.5097  -12.5394 C.2      1 ZINC000230051742    0.3500
8      O8    -10.7421    2.2354  -12.7223 O.2      1 ZINC000230051742   -0.3900
9      S9     -8.8064    2.0529  -11.0792 S.3      1 ZINC000230051742   -0.1900
10     C10   -10.1844    1.2290  -10.2436 C.3      1 ZINC000230051742   -0.1100
11     C11    -9.7219    0.7217   -8.8762 C.3      1 ZINC000230051742    0.1400
12     N12   -10.8373    0.0549   -8.1999 N.am     1 ZINC000230051742   -0.7300
13     C13   -10.6619   -0.4744   -6.9729 C.2      1 ZINC000230051742    0.5200
14     O14    -9.5807   -0.3987   -6.4287 O.2      1 ZINC000230051742   -0.5300
15     C15   -11.8093   -1.1604   -6.2771 C.3      1 ZINC000230051742   -0.1600
16     C16   -11.3467   -1.6676   -4.9098 C.3      1 ZINC000230051742    0.1400
17     N17   -12.4621   -2.3345   -4.2334 N.am     1 ZINC000230051742   -0.7300
18     C18   -12.2867   -2.8638   -3.0064 C.2      1 ZINC000230051742    0.5000
19     O19   -11.1842   -2.8710   -2.5010 O.2      1 ZINC000230051742   -0.5300
20     C20   -13.4605   -3.4467   -2.2625 C.3      1 ZINC000230051742    0.1000
21     H21   -13.1928   -4.4293   -1.8740 H        1 ZINC000230051742    0.1300
22     O22   -14.5726   -3.5726   -3.1509 O.3      1 ZINC000230051742   -0.5500
23     C23   -13.8372   -2.5245   -1.1012 C.3      1 ZINC000230051742   -0.0900
24     C24   -12.7025   -2.5070   -0.0751 C.3      1 ZINC000230051742   -0.1400
25     C25   -14.0688   -1.1075   -1.6297 C.3      1 ZINC000230051742   -0.1400
26     C26   -15.1171   -3.0368   -0.4376 C.3      1 ZINC000230051742    0.1500
27     O27   -15.4689   -2.1755    0.6470 O.3      1 ZINC000230051742   -0.7700
28     P28   -16.7653   -2.4143    1.5714 P.3      1 ZINC000230051742    2.2900
29     O29   -18.0241   -2.5033    0.6800 O.co2    1 ZINC000230051742   -1.1000
30     O30   -16.5992   -3.7319    2.3610 O.co2    1 ZINC000230051742   -1.1100
31     O31   -16.9230   -1.1874    2.6019 O.3      1 ZINC000230051742   -1.0900
32     P32   -18.1185   -0.6665    3.5461 P.3      1 ZINC000230051742    2.2900
33     O33   -19.4613   -0.7895    2.7919 O.co2    1 ZINC000230051742   -1.0900
34     O34   -18.1695   -1.5220    4.8316 O.co2    1 ZINC000230051742   -1.1100
35     O35   -17.8615    0.8742    3.9366 O.3      1 ZINC000230051742   -0.7800
36     C36   -18.7985    1.6550    4.6812 C.3      1 ZINC000230051742    0.1500
37     C37   -18.2442    3.0677    4.8761 C.3      1 ZINC000230051742    0.0500
38     H38   -17.9768    3.5096    3.9162 H        1 ZINC000230051742    0.0800
39     O39   -17.1044    3.0489    5.7622 O.3      1 ZINC000230051742   -0.3200
40     C40   -16.9630    4.3775    6.2922 C.3      1 ZINC000230051742    0.2500
41     H41   -16.5945    4.3305    7.3170 H        1 ZINC000230051742    0.1300
42     N42   -16.0325    5.1480    5.4634 N.pl3    1 ZINC000230051742   -0.4600
43     C43   -15.7334    4.9125    4.1544 C.2      1 ZINC000230051742    0.2800
44     N44   -14.8693    5.7887    3.7312 N.2      1 ZINC000230051742   -0.4800
45     C45   -14.5597    6.6398    4.7387 C.ar     1 ZINC000230051742   -0.1000
46     C46   -13.7108    7.7521    4.8670 C.ar     1 ZINC000230051742    0.5000
47     N47   -12.9552    8.1935    3.7949 N.pl3    1 ZINC000230051742   -0.8300
48     N48   -13.6506    8.3707    6.0418 N.ar     1 ZINC000230051742   -0.6000
49     C49   -14.3682    7.9568    7.0701 C.ar     1 ZINC000230051742    0.3400
50     N50   -15.1761    6.9200    6.9964 N.ar     1 ZINC000230051742   -0.5400
51     C51   -15.3069    6.2426    5.8606 C.ar     1 ZINC000230051742    0.2900
52     C52   -18.3579    5.0320    6.2664 C.3      1 ZINC000230051742    0.0700
53     H53   -18.3443    5.9352    5.6563 H        1 ZINC000230051742    0.0700
54     O54   -18.7938    5.3328    7.5936 O.3      1 ZINC000230051742   -0.5000
55     C55   -19.2708    3.9590    5.6203 C.3      1 ZINC000230051742    0.1500
56     H56   -19.9736    4.4151    4.9229 H        1 ZINC000230051742    0.0800
57     O57   -19.9628    3.2089    6.6205 O.3      1 ZINC000230051742   -0.7100
58     P58   -21.5687    3.1251    6.6993 P.3      1 ZINC000230051742    2.1200
59     O59   -22.1647    4.5725    6.7637 O.co2    1 ZINC000230051742   -1.1900
60     O60   -22.1163    2.3910    5.4282 O.co2    1 ZINC000230051742   -1.1700
61     O61   -21.9878    2.3301    7.9826 O.co2    1 ZINC000230051742   -1.1700
62     H62    -7.0547    2.9379  -14.8201 H        1 ZINC000230051742    0.0700
63     H63    -6.9640    2.1972  -13.2040 H        1 ZINC000230051742    0.0500
64     H64    -7.9803    1.4595  -14.4654 H        1 ZINC000230051742    0.0500
65     H65   -11.0037    1.9357  -10.1109 H        1 ZINC000230051742    0.1000
66     H66   -10.5246    0.3876  -10.8472 H        1 ZINC000230051742    0.1000
67     H67    -8.9027    0.0151   -9.0090 H        1 ZINC000230051742    0.0800
68     H68    -9.3817    1.5632   -8.2726 H        1 ZINC000230051742    0.0800
69     H69   -11.7020   -0.0056   -8.6351 H        1 ZINC000230051742    0.4000
70     H70   -12.6285   -0.4537   -6.1444 H        1 ZINC000230051742    0.1100
71     H71   -12.1495   -2.0018   -6.8808 H        1 ZINC000230051742    0.1000
72     H72   -10.5275   -2.3743   -5.0425 H        1 ZINC000230051742    0.0700
73     H73   -11.0065   -0.8262   -4.3062 H        1 ZINC000230051742    0.0800
74     H74   -13.3268   -2.3950   -4.6687 H        1 ZINC000230051742    0.4000
75     H75   -14.8658   -2.7351   -3.5352 H        1 ZINC000230051742    0.3700
76     H76   -11.8117   -2.0695   -0.5258 H        1 ZINC000230051742    0.0600
77     H77   -13.0023   -1.9126    0.7880 H        1 ZINC000230051742    0.0700
78     H78   -12.4851   -3.5264    0.2437 H        1 ZINC000230051742    0.0500
79     H79   -14.8772   -1.1200   -2.3608 H        1 ZINC000230051742    0.0500
80     H80   -14.3372   -0.4505   -0.8024 H        1 ZINC000230051742    0.0800
81     H81   -13.1570   -0.7425   -2.1025 H        1 ZINC000230051742    0.0500
82     H82   -15.9255   -3.0493   -1.1686 H        1 ZINC000230051742    0.0600
83     H83   -14.9521   -4.0463   -0.0611 H        1 ZINC000230051742    0.0500
84     H84   -19.7418    1.7066    4.1375 H        1 ZINC000230051742    0.0900
85     H85   -18.9648    1.1926    5.6542 H        1 ZINC000230051742    0.0800
86     H86   -16.1514    4.1159    3.5569 H        1 ZINC000230051742    0.2300
87     H87   -13.0081    7.7338    2.9423 H        1 ZINC000230051742    0.4200
88     H88   -12.3728    8.9626    3.8959 H        1 ZINC000230051742    0.4000
89     H89   -14.2891    8.4886    8.0068 H        1 ZINC000230051742    0.2000
90     H90   -18.2244    5.9581    8.0624 H        1 ZINC000230051742    0.3500
@<TRIPOS>BOND
1     1     2     1
2     1     62    1
3     1     63    1
4     1     64    1
5     2     3     1
6     2     4     1
7     2     7     1
8     4     5     ar
9     4     6     ar
10    7     8     2
11    7     9     1
12    9     10    1
13    10    11    1
14    10    65    1
15    10    66    1
16    11    12    1
17    11    67    1
18    11    68    1
19    12    13    am
20    12    69    1
21    13    14    2
22    13    15    1
23    15    16    1
24    15    70    1
25    15    71    1
26    16    17    1
27    16    72    1
28    16    73    1
29    17    18    am
30    17    74    1
31    18    19    2
32    18    20    1
33    20    21    1
34    20    22    1
35    20    23    1
36    22    75    1
37    23    24    1
38    23    25    1
39    23    26    1
40    24    76    1
41    24    77    1
42    24    78    1
43    25    79    1
44    25    80    1
45    25    81    1
46    26    27    1
47    26    82    1
48    26    83    1
49    27    28    1
50    28    29    ar
51    28    30    ar
52    28    31    1
53    31    32    1
54    32    33    ar
55    32    34    ar
56    32    35    1
57    35    36    1
58    36    37    1
59    36    84    1
60    36    85    1
61    37    38    1
62    37    55    1
63    37    39    1
64    39    40    1
65    40    41    1
66    40    42    1
67    40    52    1
68    42    51    1
69    42    43    1
70    43    44    2
71    43    86    1
72    44    45    1
73    45    51    ar
74    45    46    ar
75    46    47    1
76    46    48    ar
77    47    87    1
78    47    88    1
79    48    49    ar
80    49    50    ar
81    49    89    1
82    50    51    ar
83    52    53    1
84    52    54    1
85    52    55    1
86    54    90    1
87    55    56    1
88    55    57    1
89    57    58    1
90    58    59    ar
91    58    60    ar
92    58    61    ar
@<TRIPOS>SUBSTRUCTURE
1   ZINC000230051742 1     RESIDUE    1   A     ZIN   1
@<TRIPOS>MOLECULE
ZINC000096014536
104   106   1     0     0
SMALL
USER_CHARGES
@<TRIPOS>ATOM
1      C1     12.6854  -11.1301   23.4373 C.3      1 ZINC000096014536   -0.1500
2      C2     12.3790  -12.0951   22.2901 C.3      1 ZINC000096014536   -0.1300
3      C3     11.7772  -11.3183   21.1173 C.3      1 ZINC000096014536   -0.1200
4      C4     11.4707  -12.2832   19.9702 C.3      1 ZINC000096014536   -0.1200
5      C5     10.8689  -11.5065   18.7974 C.3      1 ZINC000096014536   -0.1500
6      C6     10.5624  -12.4714   17.6503 C.3      1 ZINC000096014536    0.1200
7      H7      9.9223  -13.2756   18.0131 H        1 ZINC000096014536    0.1000
8      O8     11.7832  -13.0223   17.1522 O.3      1 ZINC000096014536   -0.5500
9      C9      9.8473  -11.7177   16.5271 C.3      1 ZINC000096014536   -0.1800
10     C10     9.4364  -12.6903   15.4518 C.2      1 ZINC000096014536    0.3300
11     O11     9.6905  -13.8705   15.5720 O.2      1 ZINC000096014536   -0.4300
12     S12     8.6109  -12.1297   14.0607 S.3      1 ZINC000096014536   -0.1300
13     C13     8.3943  -13.6921   13.1729 C.3      1 ZINC000096014536   -0.1200
14     C14     7.6574  -13.4332   11.8572 C.3      1 ZINC000096014536    0.1400
15     N15     7.4821  -14.6978   11.1387 N.am     1 ZINC000096014536   -0.7300
16     C16     6.8546  -14.7137    9.9460 C.2      1 ZINC000096014536    0.5200
17     O17     6.4351  -13.6812    9.4676 O.2      1 ZINC000096014536   -0.5300
18     C18     6.6743  -16.0146    9.2068 C.3      1 ZINC000096014536   -0.1500
19     C19     5.9374  -15.7557    7.8912 C.3      1 ZINC000096014536    0.1400
20     N20     5.7621  -17.0202    7.1726 N.am     1 ZINC000096014536   -0.7400
21     C21     5.1346  -17.0362    5.9799 C.2      1 ZINC000096014536    0.5000
22     O22     4.6335  -16.0211    5.5447 O.2      1 ZINC000096014536   -0.5300
23     C23     5.0558  -18.3154    5.1871 C.3      1 ZINC000096014536    0.1000
24     H24     4.0301  -18.4735    4.8537 H        1 ZINC000096014536    0.1400
25     O25     5.4638  -19.4110    6.0087 O.3      1 ZINC000096014536   -0.5500
26     C26     5.9784  -18.2190    3.9704 C.3      1 ZINC000096014536   -0.0900
27     C27     5.4544  -17.1433    3.0169 C.3      1 ZINC000096014536   -0.1400
28     C28     7.3906  -17.8498    4.4292 C.3      1 ZINC000096014536   -0.1400
29     C29     6.0129  -19.5675    3.2484 C.3      1 ZINC000096014536    0.1500
30     O30     6.8747  -19.4775    2.1121 O.3      1 ZINC000096014536   -0.7700
31     P31     7.1479  -20.7146    1.1186 P.3      1 ZINC000096014536    2.2900
32     O32     7.6513  -21.9274    1.9326 O.co2    1 ZINC000096014536   -1.1000
33     O33     5.8375  -21.0904    0.3916 O.co2    1 ZINC000096014536   -1.1100
34     O34     8.2622  -20.2962    0.0344 O.3      1 ZINC000096014536   -1.0900
35     P35     9.1793  -21.1195   -1.0015 P.3      1 ZINC000096014536    2.2800
36     O36     9.6788  -22.4173   -0.3283 O.co2    1 ZINC000096014536   -1.1000
37     O37     8.3483  -21.4762   -2.2542 O.co2    1 ZINC000096014536   -1.1000
38     O38    10.4419  -20.2188   -1.4337 O.3      1 ZINC000096014536   -0.7800
39     C39    11.4977  -20.7061   -2.2643 C.3      1 ZINC000096014536    0.1500
40     C40    12.5312  -19.5984   -2.4778 C.3      1 ZINC000096014536    0.0700
41     H41    12.0497  -18.7009   -2.8661 H        1 ZINC000096014536    0.0800
42     O42    13.2174  -19.3058   -1.2412 O.3      1 ZINC000096014536   -0.3500
43     C43    14.4474  -18.6580   -1.6326 C.3      1 ZINC000096014536    0.2600
44     H44    14.2615  -17.6158   -1.8923 H        1 ZINC000096014536    0.1100
45     N45    15.4354  -18.7454   -0.5545 N.pl3    1 ZINC000096014536   -0.4500
46     C46    15.4669  -19.6806    0.4369 C.2      1 ZINC000096014536    0.3100
47     N47    16.4796  -19.4603    1.2240 N.2      1 ZINC000096014536   -0.4900
48     C48    17.1605  -18.3729    0.7891 C.ar     1 ZINC000096014536   -0.1000
49     C49    18.3041  -17.6832    1.2259 C.ar     1 ZINC000096014536    0.5000
50     N50    18.9976  -18.1014    2.3482 N.pl3    1 ZINC000096014536   -0.8300
51     N51    18.7046  -16.6201    0.5360 N.ar     1 ZINC000096014536   -0.6000
52     C52    18.0494  -16.2141   -0.5361 C.ar     1 ZINC000096014536    0.3400
53     N53    16.9737  -16.8285   -0.9817 N.ar     1 ZINC000096014536   -0.5400
54     C54    16.5022  -17.9046   -0.3607 C.ar     1 ZINC000096014536    0.2900
55     C55    14.9299  -19.4432   -2.8724 C.3      1 ZINC000096014536    0.0600
56     H56    15.3778  -18.7681   -3.6016 H        1 ZINC000096014536    0.0800
57     O57    15.8624  -20.4568   -2.4914 O.3      1 ZINC000096014536   -0.4900
58     C58    13.6387  -20.0751   -3.4435 C.3      1 ZINC000096014536    0.1500
59     H59    13.4505  -19.7121   -4.4539 H        1 ZINC000096014536    0.0800
60     O60    13.7326  -21.5010   -3.4345 O.3      1 ZINC000096014536   -0.7100
61     P61    13.6013  -22.3969   -4.7657 P.3      1 ZINC000096014536    2.1200
62     O62    12.2520  -22.0633   -5.4886 O.co2    1 ZINC000096014536   -1.1800
63     O63    14.7993  -22.0845   -5.7257 O.co2    1 ZINC000096014536   -1.1900
64     O64    13.6247  -23.9147   -4.3781 O.co2    1 ZINC000096014536   -1.1600
65     H65    11.7646  -10.6432   23.7583 H        1 ZINC000096014536    0.0500
66     H66    13.1142  -11.6835   24.2728 H        1 ZINC000096014536    0.0500
67     H67    13.3959  -10.3763   23.0980 H        1 ZINC000096014536    0.0500
68     H68    13.2998  -12.5820   21.9691 H        1 ZINC000096014536    0.0600
69     H69    11.6685  -12.8489   22.6294 H        1 ZINC000096014536    0.0600
70     H70    10.8563  -10.8314   21.4383 H        1 ZINC000096014536    0.0600
71     H71    12.4876  -10.5645   20.7780 H        1 ZINC000096014536    0.0600
72     H72    12.3915  -12.7702   19.6492 H        1 ZINC000096014536    0.0700
73     H73    10.7602  -13.0371   20.3095 H        1 ZINC000096014536    0.0600
74     H74     9.9481  -11.0195   19.1184 H        1 ZINC000096014536    0.0700
75     H75    11.5793  -10.7527   18.4581 H        1 ZINC000096014536    0.0700
76     H76    12.4027  -12.3622   16.8120 H        1 ZINC000096014536    0.3700
77     H77     8.9622  -11.2234   16.9275 H        1 ZINC000096014536    0.1100
78     H78    10.5202  -10.9717   16.1044 H        1 ZINC000096014536    0.1100
79     H79     9.3706  -14.1289   12.9627 H        1 ZINC000096014536    0.1100
80     H80     7.8125  -14.3806   13.7857 H        1 ZINC000096014536    0.1000
81     H81     6.6811  -12.9964   12.0675 H        1 ZINC000096014536    0.0800
82     H82     8.2392  -12.7447   11.2444 H        1 ZINC000096014536    0.0800
83     H83     7.8177  -15.5236   11.5213 H        1 ZINC000096014536    0.4000
84     H84     7.6506  -16.4514    8.9966 H        1 ZINC000096014536    0.1100
85     H85     6.0925  -16.7031    9.8197 H        1 ZINC000096014536    0.1000
86     H86     4.9612  -15.3189    8.1014 H        1 ZINC000096014536    0.0700
87     H87     6.5192  -15.0671    7.2783 H        1 ZINC000096014536    0.0800
88     H88     6.0977  -17.8460    7.5552 H        1 ZINC000096014536    0.4000
89     H89     6.3686  -19.3371    6.3419 H        1 ZINC000096014536    0.3700
90     H90     5.5030  -16.1700    3.5052 H        1 ZINC000096014536    0.0600
91     H91     6.0661  -17.1281    2.1148 H        1 ZINC000096014536    0.0800
92     H92     4.4209  -17.3653    2.7513 H        1 ZINC000096014536    0.0500
93     H93     7.7639  -18.6162    5.1085 H        1 ZINC000096014536    0.0500
94     H94     8.0479  -17.7812    3.5624 H        1 ZINC000096014536    0.0800
95     H95     7.3660  -16.8891    4.9435 H        1 ZINC000096014536    0.0400
96     H96     6.3862  -20.3338    3.9277 H        1 ZINC000096014536    0.0600
97     H97     5.0069  -19.8305    2.9216 H        1 ZINC000096014536    0.0500
98     H98    11.9744  -21.5598   -1.7826 H        1 ZINC000096014536    0.0800
99     H99    11.0900  -21.0132   -3.2274 H        1 ZINC000096014536    0.0900
100    H100   14.7558  -20.4852    0.5525 H        1 ZINC000096014536    0.2300
101    H101   18.6955  -18.8790    2.8431 H        1 ZINC000096014536    0.4200
102    H102   19.7857  -17.6169    2.6398 H        1 ZINC000096014536    0.4000
103    H103   18.4094  -15.3454   -1.0672 H        1 ZINC000096014536    0.2000
104    H104   16.6653  -20.1157   -2.0740 H        1 ZINC000096014536    0.3400
@<TRIPOS>BOND
1     1     2     1
2     1     65    1
3     1     66    1
4     1     67    1
5     2     3     1
6     2     68    1
7     2     69    1
8     3     4     1
9     3     70    1
10    3     71    1
11    4     5     1
12    4     72    1
13    4     73    1
14    5     6     1
15    5     74    1
16    5     75    1
17    6     7     1
18    6     8     1
19    6     9     1
20    8     76    1
21    9     10    1
22    9     77    1
23    9     78    1
24    10    11    2
25    10    12    1
26    12    13    1
27    13    14    1
28    13    79    1
29    13    80    1
30    14    15    1
31    14    81    1
32    14    82    1
33    15    16    am
34    15    83    1
35    16    17    2
36    16    18    1
37    18    19    1
38    18    84    1
39    18    85    1
40    19    20    1
41    19    86    1
42    19    87    1
43    20    21    am
44    20    88    1
45    21    22    2
46    21    23    1
47    23    24    1
48    23    25    1
49    23    26    1
50    25    89    1
51    26    27    1
52    26    28    1
53    26    29    1
54    27    90    1
55    27    91    1
56    27    92    1
57    28    93    1
58    28    94    1
59    28    95    1
60    29    30    1
61    29    96    1
62    29    97    1
63    30    31    1
64    31    32    ar
65    31    33    ar
66    31    34    1
67    34    35    1
68    35    36    ar
69    35    37    ar
70    35    38    1
71    38    39    1
72    39    40    1
73    39    98    1
74    39    99    1
75    40    41    1
76    40    58    1
77    40    42    1
78    42    43    1
79    43    44    1
80    43    45    1
81    43    55    1
82    45    54    1
83    45    46    1
84    46    47    2
85    46    100   1
86    47    48    1
87    48    54    ar
88    48    49    ar
89    49    50    1
90    49    51    ar
91    50    101   1
92    50    102   1
93    51    52    ar
94    52    53    ar
95    52    103   1
96    53    54    ar
97    55    56    1
98    55    57    1
99    55    58    1
100   57    104   1
101   58    59    1
102   58    60    1
103   60    61    1
104   61    62    ar
105   61    63    ar
106   61    64    ar
@<TRIPOS>SUBSTRUCTURE
1   ZINC000096014536 1     RESIDUE    1   A     ZIN   1
@<TRIPOS>MOLECULE
ZINC000096014540
98    100   1     0     0
SMALL
USER_CHARGES
@<TRIPOS>ATOM
1      C1     10.5924   -6.4397  -19.0135 C.3      1 ZINC000096014540   -0.1500
2      C2      9.9498   -7.5962  -18.2452 C.3      1 ZINC000096014540   -0.1200
3      C3      9.1014   -7.0390  -17.1004 C.3      1 ZINC000096014540   -0.1500
4      C4      8.4588   -8.1956  -16.3320 C.3      1 ZINC000096014540    0.1200
5      H5      9.2337   -8.8874  -16.0019 H        1 ZINC000096014540    0.1100
6      O6      7.5397   -8.8814  -17.1846 O.3      1 ZINC000096014540   -0.5500
7      C7      7.7127   -7.6467  -15.1143 C.3      1 ZINC000096014540   -0.1800
8      C8      7.1839   -8.7926  -14.2906 C.2      1 ZINC000096014540    0.3300
9      O9      7.3842   -9.9361  -14.6430 O.2      1 ZINC000096014540   -0.4300
10     S10     6.3006   -8.4807  -12.8577 S.3      1 ZINC000096014540   -0.1300
11     C11     5.9472  -10.1760  -12.3310 C.3      1 ZINC000096014540   -0.1200
12     C12     5.1416  -10.1486  -11.0306 C.3      1 ZINC000096014540    0.1400
13     N13     4.8556  -11.5208  -10.6044 N.am     1 ZINC000096014540   -0.7300
14     C14     4.1527  -11.7433   -9.4762 C.2      1 ZINC000096014540    0.5200
15     O15     3.7569  -10.8076   -8.8138 O.2      1 ZINC000096014540   -0.5300
16     C16     3.8585  -13.1547   -9.0377 C.3      1 ZINC000096014540   -0.1500
17     C17     3.0528  -13.1274   -7.7373 C.3      1 ZINC000096014540    0.1400
18     N18     2.7668  -14.4995   -7.3111 N.am     1 ZINC000096014540   -0.7400
19     C19     2.0639  -14.7220   -6.1828 C.2      1 ZINC000096014540    0.5000
20     O20     1.7465  -13.7915   -5.4727 O.2      1 ZINC000096014540   -0.5200
21     C21     1.6723  -16.1270   -5.8038 C.3      1 ZINC000096014540    0.1000
22     H22     0.5982  -16.1686   -5.6230 H        1 ZINC000096014540    0.1400
23     O23     2.0113  -17.0193   -6.8672 O.3      1 ZINC000096014540   -0.5500
24     C24     2.4195  -16.5397   -4.5340 C.3      1 ZINC000096014540   -0.0900
25     C25     3.9234  -16.3513   -4.7432 C.3      1 ZINC000096014540   -0.1400
26     C26     1.9546  -15.6709   -3.3636 C.3      1 ZINC000096014540   -0.1400
27     C27     2.1277  -18.0096   -4.2255 C.3      1 ZINC000096014540    0.1500
28     O28     2.8255  -18.3950   -3.0395 O.3      1 ZINC000096014540   -0.7700
29     P29     2.7475  -19.8787   -2.4192 P.3      1 ZINC000096014540    2.2900
30     O30     1.2694  -20.2596   -2.1796 O.co2    1 ZINC000096014540   -1.1000
31     O31     3.3849  -20.8832   -3.4049 O.co2    1 ZINC000096014540   -1.1100
32     O32     3.5453  -19.9186   -1.0214 O.3      1 ZINC000096014540   -1.0900
33     P33     3.5947  -20.9558    0.2090 P.3      1 ZINC000096014540    2.2900
34     O34     2.1714  -21.4851    0.4938 O.co2    1 ZINC000096014540   -1.1000
35     O35     4.5214  -22.1384   -0.1513 O.co2    1 ZINC000096014540   -1.1000
36     O36     4.1615  -20.2092    1.5179 O.3      1 ZINC000096014540   -0.7700
37     C37     4.2285  -20.8328    2.8019 C.3      1 ZINC000096014540    0.1400
38     C38     4.8141  -19.8489    3.8168 C.3      1 ZINC000096014540    0.0700
39     H39     5.7736  -19.4691    3.4659 H        1 ZINC000096014540    0.1000
40     O40     3.8957  -18.7584    4.0475 O.3      1 ZINC000096014540   -0.3500
41     C41     4.2851  -18.1956    5.3193 C.3      1 ZINC000096014540    0.2600
42     H42     5.1641  -17.5621    5.2007 H        1 ZINC000096014540    0.1200
43     N43     3.1791  -17.4285    5.8977 N.pl3    1 ZINC000096014540   -0.4500
44     C44     1.8536  -17.5941    5.6257 C.2      1 ZINC000096014540    0.2900
45     N45     1.1487  -16.7446    6.3150 N.2      1 ZINC000096014540   -0.4800
46     C46     1.9746  -15.9820    7.0710 C.ar     1 ZINC000096014540   -0.1000
47     C47     1.7884  -14.9324    7.9864 C.ar     1 ZINC000096014540    0.5000
48     N48     0.5189  -14.4671    8.2815 N.pl3    1 ZINC000096014540   -0.8300
49     N49     2.8598  -14.3971    8.5626 N.ar     1 ZINC000096014540   -0.6000
50     C50     4.0748  -14.8349    8.2875 C.ar     1 ZINC000096014540    0.3400
51     N51     4.2971  -15.8147    7.4369 N.ar     1 ZINC000096014540   -0.5400
52     C52     3.2869  -16.4156    6.8167 C.ar     1 ZINC000096014540    0.2900
53     C53     4.6175  -19.4162    6.2059 C.3      1 ZINC000096014540    0.0600
54     H54     3.7505  -19.7038    6.8006 H        1 ZINC000096014540    0.0700
55     O55     5.7321  -19.1308    7.0534 O.3      1 ZINC000096014540   -0.5000
56     C56     4.9763  -20.5298    5.1940 C.3      1 ZINC000096014540    0.1500
57     H57     4.2859  -21.3680    5.2878 H        1 ZINC000096014540    0.0800
58     O58     6.3227  -20.9676    5.3877 O.3      1 ZINC000096014540   -0.7200
59     P59     6.7085  -22.4937    5.7255 P.3      1 ZINC000096014540    2.1200
60     O60     5.9210  -22.9625    6.9961 O.co2    1 ZINC000096014540   -1.1900
61     O61     6.3320  -23.4087    4.5107 O.co2    1 ZINC000096014540   -1.1700
62     O62     8.2479  -22.5951    5.9983 O.co2    1 ZINC000096014540   -1.1700
63     H63     9.8125   -5.7954  -19.4195 H        1 ZINC000096014540    0.0500
64     H64    11.2256   -5.8630  -18.3394 H        1 ZINC000096014540    0.0500
65     H65    11.1968   -6.8367  -19.8291 H        1 ZINC000096014540    0.0500
66     H66     9.3165   -8.1729  -18.9194 H        1 ZINC000096014540    0.0700
67     H67    10.7297   -8.2405  -17.8392 H        1 ZINC000096014540    0.0600
68     H68     9.7347   -6.4623  -16.4262 H        1 ZINC000096014540    0.0700
69     H69     8.3215   -6.3948  -17.5063 H        1 ZINC000096014540    0.0700
70     H70     6.8215   -8.3256  -17.5167 H        1 ZINC000096014540    0.3700
71     H71     8.3945   -7.0488  -14.5095 H        1 ZINC000096014540    0.1100
72     H72     6.8817   -7.0248  -15.4473 H        1 ZINC000096014540    0.1100
73     H73     5.3715  -10.6842  -13.1045 H        1 ZINC000096014540    0.1000
74     H74     6.8842  -10.7082  -12.1668 H        1 ZINC000096014540    0.1000
75     H75     5.7173   -9.6404  -10.2571 H        1 ZINC000096014540    0.0800
76     H76     4.2046   -9.6164  -11.1949 H        1 ZINC000096014540    0.0800
77     H77     5.1721  -12.2691  -11.1342 H        1 ZINC000096014540    0.4000
78     H78     3.2827  -13.6629   -9.8112 H        1 ZINC000096014540    0.1000
79     H79     4.7954  -13.6869   -8.8735 H        1 ZINC000096014540    0.1100
80     H80     3.6286  -12.6192   -6.9638 H        1 ZINC000096014540    0.0800
81     H81     2.1158  -12.5952   -7.9015 H        1 ZINC000096014540    0.0700
82     H82     3.0833  -15.2479   -7.8408 H        1 ZINC000096014540    0.4000
83     H83     2.9539  -17.0341   -7.0828 H        1 ZINC000096014540    0.3700
84     H84     4.1313  -15.3041   -4.9630 H        1 ZINC000096014540    0.0400
85     H85     4.4557  -16.6453   -3.8386 H        1 ZINC000096014540    0.0800
86     H86     4.2546  -16.9703   -5.5770 H        1 ZINC000096014540    0.0500
87     H87     0.8683  -15.7163   -3.2864 H        1 ZINC000096014540    0.0500
88     H88     2.4002  -16.0381   -2.4391 H        1 ZINC000096014540    0.0800
89     H89     2.2642  -14.6393   -3.5314 H        1 ZINC000096014540    0.0600
90     H90     1.0563  -18.1438   -4.0765 H        1 ZINC000096014540    0.0500
91     H91     2.4589  -18.6285   -5.0593 H        1 ZINC000096014540    0.0600
92     H92     3.2268  -21.1258    3.1162 H        1 ZINC000096014540    0.0600
93     H93     4.8641  -21.7164    2.7440 H        1 ZINC000096014540    0.1000
94     H94     1.4482  -18.3225    4.9390 H        1 ZINC000096014540    0.2300
95     H95    -0.2553  -14.8662    7.8546 H        1 ZINC000096014540    0.4200
96     H96     0.4033  -13.7419    8.9152 H        1 ZINC000096014540    0.4000
97     H97     4.9178  -14.3715    8.7784 H        1 ZINC000096014540    0.2000
98     H98     5.5818  -18.3994    7.6679 H        1 ZINC000096014540    0.3500
@<TRIPOS>BOND
1     1     2     1
2     1     63    1
3     1     64    1
4     1     65    1
5     2     3     1
6     2     66    1
7     2     67    1
8     3     4     1
9     3     68    1
10    3     69    1
11    4     5     1
12    4     6     1
13    4     7     1
14    6     70    1
15    7     8     1
16    7     71    1
17    7     72    1
18    8     9     2
19    8     10    1
20    10    11    1
21    11    12    1
22    11    73    1
23    11    74    1
24    12    13    1
25    12    75    1
26    12    76    1
27    13    14    am
28    13    77    1
29    14    15    2
30    14    16    1
31    16    17    1
32    16    78    1
33    16    79    1
34    17    18    1
35    17    80    1
36    17    81    1
37    18    19    am
38    18    82    1
39    19    20    2
40    19    21    1
41    21    22    1
42    21    23    1
43    21    24    1
44    23    83    1
45    24    25    1
46    24    26    1
47    24    27    1
48    25    84    1
49    25    85    1
50    25    86    1
51    26    87    1
52    26    88    1
53    26    89    1
54    27    28    1
55    27    90    1
56    27    91    1
57    28    29    1
58    29    30    ar
59    29    31    ar
60    29    32    1
61    32    33    1
62    33    34    ar
63    33    35    ar
64    33    36    1
65    36    37    1
66    37    38    1
67    37    92    1
68    37    93    1
69    38    39    1
70    38    56    1
71    38    40    1
72    40    41    1
73    41    42    1
74    41    43    1
75    41    53    1
76    43    52    1
77    43    44    1
78    44    45    2
79    44    94    1
80    45    46    1
81    46    52    ar
82    46    47    ar
83    47    48    1
84    47    49    ar
85    48    95    1
86    48    96    1
87    49    50    ar
88    50    51    ar
89    50    97    1
90    51    52    ar
91    53    54    1
92    53    55    1
93    53    56    1
94    55    98    1
95    56    57    1
96    56    58    1
97    58    59    1
98    59    60    ar
99    59    61    ar
100   59    62    ar
@<TRIPOS>SUBSTRUCTURE
1   ZINC000096014540 1     RESIDUE    1   A     ZIN   1
@<TRIPOS>MOLECULE
ZINC000096014546
107   109   1     0     0
SMALL
USER_CHARGES
@<TRIPOS>ATOM
1      C1     -3.4619   -7.7957  -26.5967 C.3      1 ZINC000096014546   -0.1500
2      C2     -3.0427   -8.9541  -25.6893 C.3      1 ZINC000096014546   -0.1300
3      C3     -3.8357   -8.8908  -24.3823 C.3      1 ZINC000096014546   -0.1200
4      C4     -3.4165  -10.0492  -23.4749 C.3      1 ZINC000096014546   -0.1200
5      C5     -4.2094   -9.9860  -22.1680 C.3      1 ZINC000096014546   -0.1200
6      C6     -3.7903  -11.1444  -21.2606 C.3      1 ZINC000096014546   -0.1200
7      C7     -4.5832  -11.0812  -19.9536 C.3      1 ZINC000096014546   -0.1000
8      C8     -4.1703  -12.2221  -19.0599 C.2      1 ZINC000096014546   -0.0500
9      C9     -3.7436  -11.9781  -17.8243 C.2      1 ZINC000096014546   -0.2200
10     C10    -3.3406  -13.0917  -16.9519 C.2      1 ZINC000096014546    0.3800
11     O11    -3.3977  -14.2362  -17.3608 O.2      1 ZINC000096014546   -0.4500
12     S12    -2.7752  -12.7683  -15.3147 S.3      1 ZINC000096014546   -0.1400
13     C13    -2.4407  -14.4579  -14.7582 C.3      1 ZINC000096014546   -0.1100
14     C14    -1.9234  -14.4277  -13.3187 C.3      1 ZINC000096014546    0.1400
15     N15    -1.6527  -15.7952  -12.8682 N.am     1 ZINC000096014546   -0.7300
16     C16    -1.1858  -16.0145  -11.6231 C.2      1 ZINC000096014546    0.5200
17     O17    -0.9899  -15.0799  -10.8755 O.2      1 ZINC000096014546   -0.5300
18     C18    -0.9073  -17.4212  -11.1598 C.3      1 ZINC000096014546   -0.1500
19     C19    -0.3901  -17.3910   -9.7202 C.3      1 ZINC000096014546    0.1400
20     N20    -0.1193  -18.7585   -9.2698 N.am     1 ZINC000096014546   -0.7400
21     C21     0.3475  -18.9779   -8.0246 C.2      1 ZINC000096014546    0.5000
22     O22     0.6297  -18.0404   -7.3088 O.2      1 ZINC000096014546   -0.5200
23     C23     0.5189  -20.3882   -7.5217 C.3      1 ZINC000096014546    0.1000
24     H24     0.0004  -20.4999   -6.5695 H        1 ZINC000096014546    0.1400
25     O25    -0.0294  -21.3030   -8.4728 O.3      1 ZINC000096014546   -0.5500
26     C26     2.0077  -20.6837   -7.3295 C.3      1 ZINC000096014546   -0.0900
27     C27     2.7572  -20.3955   -8.6319 C.3      1 ZINC000096014546   -0.1400
28     C28     2.5639  -19.7964   -6.2140 C.3      1 ZINC000096014546   -0.1400
29     C29     2.1909  -22.1546   -6.9504 C.3      1 ZINC000096014546    0.1500
30     O30     3.5815  -22.4306   -6.7709 O.3      1 ZINC000096014546   -0.7700
31     P31     4.1417  -23.8847   -6.3658 P.3      1 ZINC000096014546    2.2900
32     O32     3.4480  -24.3613   -5.0702 O.co2    1 ZINC000096014546   -1.1000
33     O33     3.8478  -24.8856   -7.5055 O.co2    1 ZINC000096014546   -1.1100
34     O34     5.7310  -23.7990   -6.1233 O.3      1 ZINC000096014546   -1.0900
35     P35     6.8100  -24.7698   -5.4266 P.3      1 ZINC000096014546    2.2900
36     O36     6.1977  -25.3880   -4.1499 O.co2    1 ZINC000096014546   -1.1000
37     O37     7.1987  -25.8970   -6.4092 O.co2    1 ZINC000096014546   -1.1000
38     O38     8.1218  -23.9219   -5.0364 O.3      1 ZINC000096014546   -0.7700
39     C39     9.2192  -24.4768   -4.3086 C.3      1 ZINC000096014546    0.1400
40     C40    10.2929  -23.4052   -4.1091 C.3      1 ZINC000096014546    0.0700
41     H41    10.5794  -22.9732   -5.0679 H        1 ZINC000096014546    0.1000
42     O42     9.8156  -22.3754   -3.2161 O.3      1 ZINC000096014546   -0.3500
43     C43    11.0040  -21.7254   -2.7152 C.3      1 ZINC000096014546    0.2600
44     H44    11.4015  -21.0354   -3.4595 H        1 ZINC000096014546    0.1200
45     N45    10.7096  -21.0148   -1.4683 N.pl3    1 ZINC000096014546   -0.4500
46     C46     9.6921  -21.2902   -0.6039 C.2      1 ZINC000096014546    0.2900
47     N47     9.7254  -20.4628    0.4001 N.2      1 ZINC000096014546   -0.4800
48     C48    10.7634  -19.6063    0.2443 C.ar     1 ZINC000096014546   -0.1000
49     C49    11.2772  -18.5307    0.9882 C.ar     1 ZINC000096014546    0.5000
50     N50    10.6853  -18.1464    2.1786 N.pl3    1 ZINC000096014546   -0.8300
51     N51    12.3451  -17.8912    0.5221 N.ar     1 ZINC000096014546   -0.6000
52     C52    12.9165  -18.2512   -0.6125 C.ar     1 ZINC000096014546    0.3400
53     N53    12.4699  -19.2516   -1.3424 N.ar     1 ZINC000096014546   -0.5400
54     C54    11.4109  -19.9539   -0.9535 C.ar     1 ZINC000096014546    0.2900
55     C55    12.0042  -22.8745   -2.4588 C.3      1 ZINC000096014546    0.0600
56     H56    11.9578  -23.1962   -1.4184 H        1 ZINC000096014546    0.0700
57     O57    13.3316  -22.4677   -2.7971 O.3      1 ZINC000096014546   -0.5000
58     C58    11.5267  -24.0057   -3.3996 C.3      1 ZINC000096014546    0.1500
59     H59    11.2434  -24.8870   -2.8241 H        1 ZINC000096014546    0.0800
60     O60    12.5461  -24.3337   -4.3459 O.3      1 ZINC000096014546   -0.7200
61     P61    13.1753  -25.8095   -4.4808 P.3      1 ZINC000096014546    2.1200
62     O62    13.7217  -26.2736   -3.0878 O.co2    1 ZINC000096014546   -1.1900
63     O63    12.0687  -26.8066   -4.9662 O.co2    1 ZINC000096014546   -1.1700
64     O64    14.3477  -25.7843   -5.5197 O.co2    1 ZINC000096014546   -1.1700
65     H65    -4.5273   -7.8716  -26.8140 H        1 ZINC000096014546    0.0500
66     H66    -3.2600   -6.8495  -26.0946 H        1 ZINC000096014546    0.0500
67     H67    -2.8970   -7.8407  -27.5278 H        1 ZINC000096014546    0.0500
68     H68    -3.2446   -9.9003  -26.1913 H        1 ZINC000096014546    0.0600
69     H69    -1.9773   -8.8782  -25.4719 H        1 ZINC000096014546    0.0600
70     H70    -3.6338   -7.9446  -23.8803 H        1 ZINC000096014546    0.0600
71     H71    -4.9011   -8.9667  -24.5997 H        1 ZINC000096014546    0.0600
72     H72    -3.6184  -10.9954  -23.9770 H        1 ZINC000096014546    0.0600
73     H73    -2.3511   -9.9733  -23.2576 H        1 ZINC000096014546    0.0600
74     H74    -4.0076   -9.0398  -21.6659 H        1 ZINC000096014546    0.0600
75     H75    -5.2748  -10.0619  -22.3853 H        1 ZINC000096014546    0.0600
76     H76    -3.9922  -12.0906  -21.7626 H        1 ZINC000096014546    0.0700
77     H77    -2.7249  -11.0685  -21.0432 H        1 ZINC000096014546    0.0700
78     H78    -4.3813  -10.1350  -19.4516 H        1 ZINC000096014546    0.0800
79     H79    -5.6486  -11.1571  -20.1710 H        1 ZINC000096014546    0.0900
80     H80    -4.2210  -13.2380  -19.4229 H        1 ZINC000096014546    0.1300
81     H81    -3.6929  -10.9621  -17.4613 H        1 ZINC000096014546    0.1400
82     H82    -3.3590  -15.0434  -14.8021 H        1 ZINC000096014546    0.1000
83     H83    -1.6894  -14.9113  -15.4048 H        1 ZINC000096014546    0.1000
84     H84    -1.0051  -13.8421  -13.2748 H        1 ZINC000096014546    0.0800
85     H85    -2.6747  -13.9742  -12.6721 H        1 ZINC000096014546    0.0800
86     H86    -1.8094  -16.5427  -13.4662 H        1 ZINC000096014546    0.4000
87     H87    -1.8257  -18.0068  -11.2036 H        1 ZINC000096014546    0.1000
88     H88    -0.1561  -17.8747  -11.8063 H        1 ZINC000096014546    0.1100
89     H89     0.5283  -16.8055   -9.6763 H        1 ZINC000096014546    0.0800
90     H90    -1.1413  -16.9376   -9.0736 H        1 ZINC000096014546    0.0700
91     H91    -0.2760  -19.5061   -9.8677 H        1 ZINC000096014546    0.4000
92     H92     0.3852  -21.2588   -9.3453 H        1 ZINC000096014546    0.3700
93     H93     2.6267  -19.3476   -8.9020 H        1 ZINC000096014546    0.0400
94     H94     3.8178  -20.6061   -8.4950 H        1 ZINC000096014546    0.0800
95     H95     2.3609  -21.0276   -9.4266 H        1 ZINC000096014546    0.0500
96     H96     1.9572  -19.9178   -5.3167 H        1 ZINC000096014546    0.0500
97     H97     3.5927  -20.0853   -5.9989 H        1 ZINC000096014546    0.0800
98     H98     2.5381  -18.7541   -6.5319 H        1 ZINC000096014546    0.0600
99     H99     1.6570  -22.3599   -6.0226 H        1 ZINC000096014546    0.0500
100    H100    1.7947  -22.7867   -7.7451 H        1 ZINC000096014546    0.0600
101    H101    8.8707  -24.8273   -3.3370 H        1 ZINC000096014546    0.0600
102    H102    9.6398  -25.3131   -4.8670 H        1 ZINC000096014546    0.1000
103    H103    8.9652  -22.0784   -0.7334 H        1 ZINC000096014546    0.2300
104    H104    9.9065  -18.6212    2.5085 H        1 ZINC000096014546    0.4200
105    H105   11.0494  -17.4022    2.6832 H        1 ZINC000096014546    0.4000
106    H106   13.7826  -17.7042   -0.9547 H        1 ZINC000096014546    0.2000
107    H107   13.6587  -21.7209   -2.2772 H        1 ZINC000096014546    0.3500
@<TRIPOS>BOND
1     1     2     1
2     1     65    1
3     1     66    1
4     1     67    1
5     2     3     1
6     2     68    1
7     2     69    1
8     3     4     1
9     3     70    1
10    3     71    1
11    4     5     1
12    4     72    1
13    4     73    1
14    5     6     1
15    5     74    1
16    5     75    1
17    6     7     1
18    6     76    1
19    6     77    1
20    7     8     1
21    7     78    1
22    7     79    1
23    8     9     2
24    8     80    1
25    9     10    1
26    9     81    1
27    10    11    2
28    10    12    1
29    12    13    1
30    13    14    1
31    13    82    1
32    13    83    1
33    14    15    1
34    14    84    1
35    14    85    1
36    15    16    am
37    15    86    1
38    16    17    2
39    16    18    1
40    18    19    1
41    18    87    1
42    18    88    1
43    19    20    1
44    19    89    1
45    19    90    1
46    20    21    am
47    20    91    1
48    21    22    2
49    21    23    1
50    23    24    1
51    23    25    1
52    23    26    1
53    25    92    1
54    26    27    1
55    26    28    1
56    26    29    1
57    27    93    1
58    27    94    1
59    27    95    1
60    28    96    1
61    28    97    1
62    28    98    1
63    29    30    1
64    29    99    1
65    29    100   1
66    30    31    1
67    31    32    ar
68    31    33    ar
69    31    34    1
70    34    35    1
71    35    36    ar
72    35    37    ar
73    35    38    1
74    38    39    1
75    39    40    1
76    39    101   1
77    39    102   1
78    40    41    1
79    40    58    1
80    40    42    1
81    42    43    1
82    43    44    1
83    43    45    1
84    43    55    1
85    45    54    1
86    45    46    1
87    46    47    2
88    46    103   1
89    47    48    1
90    48    54    ar
91    48    49    ar
92    49    50    1
93    49    51    ar
94    50    104   1
95    50    105   1
96    51    52    ar
97    52    53    ar
98    52    106   1
99    53    54    ar
100   55    56    1
101   55    57    1
102   55    58    1
103   57    107   1
104   58    59    1
105   58    60    1
106   60    61    1
107   61    62    ar
108   61    63    ar
109   61    64    ar
@<TRIPOS>SUBSTRUCTURE
1   ZINC000096014546 1     RESIDUE    1   A     ZIN   1
@<TRIPOS>MOLECULE
ZINC000096014554
109   111   1     0     0
SMALL
USER_CHARGES
@<TRIPOS>ATOM
1      C1     17.5678  -12.2660  -25.2816 C.3      1 ZINC000096014554   -0.1500
2      C2     16.8761  -13.2865  -24.3756 C.3      1 ZINC000096014554   -0.1300
3      C3     16.1206  -12.5534  -23.2654 C.3      1 ZINC000096014554   -0.1200
4      C4     15.4289  -13.5739  -22.3593 C.3      1 ZINC000096014554   -0.1200
5      C5     14.6734  -12.8407  -21.2491 C.3      1 ZINC000096014554   -0.1200
6      C6     13.9817  -13.8612  -20.3430 C.3      1 ZINC000096014554   -0.1200
7      C7     13.2262  -13.1281  -19.2328 C.3      1 ZINC000096014554   -0.1200
8      C8     12.5345  -14.1486  -18.3267 C.3      1 ZINC000096014554   -0.1100
9      C9     11.7789  -13.4154  -17.2165 C.3      1 ZINC000096014554   -0.1500
10     C10    11.0976  -14.4206  -16.3241 C.2      1 ZINC000096014554    0.3300
11     O11    11.2058  -15.6071  -16.5535 O.2      1 ZINC000096014554   -0.4500
12     S12    10.1711  -13.8883  -14.9865 S.3      1 ZINC000096014554   -0.1200
13     C13     9.6274  -15.4834  -14.3261 C.3      1 ZINC000096014554   -0.1200
14     C14     8.7579  -15.2534  -13.0884 C.3      1 ZINC000096014554    0.1400
15     N15     8.3179  -16.5444  -12.5538 N.am     1 ZINC000096014554   -0.7300
16     C16     7.5358  -16.5885  -11.4570 C.2      1 ZINC000096014554    0.5200
17     O17     7.1964  -15.5592  -10.9126 O.2      1 ZINC000096014554   -0.5300
18     C18     7.0832  -17.9165  -10.9072 C.3      1 ZINC000096014554   -0.1500
19     C19     6.2137  -17.6864   -9.6695 C.3      1 ZINC000096014554    0.1400
20     N20     5.7736  -18.9775   -9.1349 N.am     1 ZINC000096014554   -0.7400
21     C21     4.9916  -19.0215   -8.0381 C.2      1 ZINC000096014554    0.5000
22     O22     4.7286  -18.0001   -7.4395 O.2      1 ZINC000096014554   -0.5300
23     C23     4.4440  -20.3400   -7.5556 C.3      1 ZINC000096014554    0.1000
24     H24     4.6179  -20.4353   -6.4838 H        1 ZINC000096014554    0.1400
25     O25     5.1004  -21.4081   -8.2414 O.3      1 ZINC000096014554   -0.5500
26     C26     2.9411  -20.4013   -7.8359 C.3      1 ZINC000096014554   -0.0900
27     C27     2.2207  -19.3523   -6.9864 C.3      1 ZINC000096014554   -0.1400
28     C28     2.6868  -20.1196   -9.3180 C.3      1 ZINC000096014554   -0.1400
29     C29     2.4130  -21.7933   -7.4833 C.3      1 ZINC000096014554    0.1500
30     O30     1.0093  -21.8506   -7.7451 O.3      1 ZINC000096014554   -0.7700
31     P31     0.1225  -23.1696   -7.4883 P.3      1 ZINC000096014554    2.2900
32     O32     0.7412  -24.3625   -8.2506 O.co2    1 ZINC000096014554   -1.1000
33     O33     0.0934  -23.4841   -5.9759 O.co2    1 ZINC000096014554   -1.1100
34     O34    -1.3785  -22.9176   -8.0130 O.3      1 ZINC000096014554   -1.0900
35     P35    -2.6291  -23.8809   -8.3296 P.3      1 ZINC000096014554    2.2900
36     O36    -2.1260  -25.1674   -9.0215 O.co2    1 ZINC000096014554   -1.1000
37     O37    -3.3413  -24.2510   -7.0095 O.co2    1 ZINC000096014554   -1.1000
38     O38    -3.6618  -23.1179   -9.3009 O.3      1 ZINC000096014554   -0.7700
39     C39    -4.8236  -23.7447   -9.8481 C.3      1 ZINC000096014554    0.1400
40     C40    -5.5799  -22.7424  -10.7224 C.3      1 ZINC000096014554    0.0700
41     H41    -5.7985  -21.8364  -10.1573 H        1 ZINC000096014554    0.1000
42     O42    -4.8115  -22.4253  -11.9034 O.3      1 ZINC000096014554   -0.3500
43     C43    -5.7691  -21.9083  -12.8529 C.3      1 ZINC000096014554    0.2600
44     H44    -6.0184  -20.8741  -12.6156 H        1 ZINC000096014554    0.1200
45     N45    -5.2392  -22.0044  -14.2153 N.pl3    1 ZINC000096014554   -0.4500
46     C46    -4.2799  -22.8706  -14.6485 C.2      1 ZINC000096014554    0.2900
47     N47    -4.0500  -22.6822  -15.9155 N.2      1 ZINC000096014554   -0.4800
48     C48    -4.8449  -21.6860  -16.3747 C.ar     1 ZINC000096014554   -0.1000
49     C49    -5.0303  -21.0650  -17.6214 C.ar     1 ZINC000096014554    0.5000
50     N50    -4.2984  -21.4628  -18.7265 N.pl3    1 ZINC000096014554   -0.8300
51     N51    -5.9254  -20.0869  -17.7147 N.ar     1 ZINC000096014554   -0.6000
52     C52    -6.6286  -19.7010  -16.6658 C.ar     1 ZINC000096014554    0.3400
53     N53    -6.4882  -20.2533  -15.4790 N.ar     1 ZINC000096014554   -0.5400
54     C54    -5.6217  -21.2431  -15.2907 C.ar     1 ZINC000096014554    0.2900
55     C55    -7.0119  -22.8117  -12.6917 C.3      1 ZINC000096014554    0.0600
56     H56    -6.9931  -23.6209  -13.4218 H        1 ZINC000096014554    0.0700
57     O57    -8.2097  -22.0443  -12.8274 O.3      1 ZINC000096014554   -0.5000
58     C58    -6.8860  -23.3721  -11.2555 C.3      1 ZINC000096014554    0.1500
59     H59    -6.8042  -24.4588  -11.2753 H        1 ZINC000096014554    0.0800
60     O60    -8.0038  -22.9698  -10.4613 O.3      1 ZINC000096014554   -0.7200
61     P61    -8.9914  -24.0185   -9.7423 P.3      1 ZINC000096014554    2.1200
62     O62    -9.5626  -25.0136  -10.8090 O.co2    1 ZINC000096014554   -1.1900
63     O63    -8.1996  -24.8188   -8.6527 O.co2    1 ZINC000096014554   -1.1700
64     O64   -10.1728  -23.2436   -9.0655 O.co2    1 ZINC000096014554   -1.1700
65     H65    16.8203  -11.6077  -25.7243 H        1 ZINC000096014554    0.0500
66     H66    18.2699  -11.6749  -24.6935 H        1 ZINC000096014554    0.0500
67     H67    18.1061  -12.7883  -26.0726 H        1 ZINC000096014554    0.0500
68     H68    16.1741  -13.8776  -24.9637 H        1 ZINC000096014554    0.0600
69     H69    17.6236  -13.9448  -23.9329 H        1 ZINC000096014554    0.0600
70     H70    16.8226  -11.9623  -22.6772 H        1 ZINC000096014554    0.0600
71     H71    15.3731  -11.8951  -23.7081 H        1 ZINC000096014554    0.0600
72     H72    14.7269  -14.1649  -22.9474 H        1 ZINC000096014554    0.0600
73     H73    16.1764  -14.2322  -21.9166 H        1 ZINC000096014554    0.0600
74     H74    15.3754  -12.2496  -20.6610 H        1 ZINC000096014554    0.0600
75     H75    13.9259  -12.1824  -21.6918 H        1 ZINC000096014554    0.0600
76     H76    13.2796  -14.4523  -20.9311 H        1 ZINC000096014554    0.0600
77     H77    14.7292  -14.5195  -19.9003 H        1 ZINC000096014554    0.0600
78     H78    13.9282  -12.5370  -18.6447 H        1 ZINC000096014554    0.0600
79     H79    12.4787  -12.4698  -19.6755 H        1 ZINC000096014554    0.0600
80     H80    11.8324  -14.7396  -18.9149 H        1 ZINC000096014554    0.0700
81     H81    13.2820  -14.8069  -17.8840 H        1 ZINC000096014554    0.0700
82     H82    12.4810  -12.8243  -16.6284 H        1 ZINC000096014554    0.1000
83     H83    11.0315  -12.7571  -17.6592 H        1 ZINC000096014554    0.1100
84     H84     9.0487  -16.0121  -15.0835 H        1 ZINC000096014554    0.1000
85     H85    10.4982  -16.0793  -14.0527 H        1 ZINC000096014554    0.1000
86     H86     9.3366  -14.7247  -12.3309 H        1 ZINC000096014554    0.0800
87     H87     7.8871  -14.6575  -13.3618 H        1 ZINC000096014554    0.0800
88     H88     8.5894  -17.3676  -12.9893 H        1 ZINC000096014554    0.4000
89     H89     6.5045  -18.4452  -11.6646 H        1 ZINC000096014554    0.1100
90     H90     7.9540  -18.5124  -10.6338 H        1 ZINC000096014554    0.1000
91     H91     6.7924  -17.1578   -8.9120 H        1 ZINC000096014554    0.0700
92     H92     5.3429  -17.0906   -9.9429 H        1 ZINC000096014554    0.0800
93     H93     6.0451  -19.8007   -9.5704 H        1 ZINC000096014554    0.4000
94     H94     4.9881  -21.3867   -9.2017 H        1 ZINC000096014554    0.3700
95     H95     2.5401  -18.3559   -7.2917 H        1 ZINC000096014554    0.0600
96     H96     1.1441  -19.4478   -7.1272 H        1 ZINC000096014554    0.0800
97     H97     2.4648  -19.5059   -5.9353 H        1 ZINC000096014554    0.0500
98     H98     3.2001  -20.8670   -9.9232 H        1 ZINC000096014554    0.0500
99     H99     1.6162  -20.1633   -9.5177 H        1 ZINC000096014554    0.0800
100    H100    3.0631  -19.1279   -9.5692 H        1 ZINC000096014554    0.0400
101    H101    2.9262  -22.5406   -8.0885 H        1 ZINC000096014554    0.0600
102    H102    2.5942  -21.9940   -6.4274 H        1 ZINC000096014554    0.0500
103    H103   -4.5239  -24.6007  -10.4529 H        1 ZINC000096014554    0.0600
104    H104   -5.4707  -24.0810   -9.0380 H        1 ZINC000096014554    0.1000
105    H105   -3.7834  -23.6046  -14.0311 H        1 ZINC000096014554    0.2300
106    H106   -3.6483  -22.1781  -18.6457 H        1 ZINC000096014554    0.4200
107    H107   -4.4355  -21.0263  -19.5818 H        1 ZINC000096014554    0.4000
108    H108   -7.3454  -18.9022  -16.7859 H        1 ZINC000096014554    0.2000
109    H109   -8.3096  -21.6205  -13.6908 H        1 ZINC000096014554    0.3500
@<TRIPOS>BOND
1     1     2     1
2     1     65    1
3     1     66    1
4     1     67    1
5     2     3     1
6     2     68    1
7     2     69    1
8     3     4     1
9     3     70    1
10    3     71    1
11    4     5     1
12    4     72    1
13    4     73    1
14    5     6     1
15    5     74    1
16    5     75    1
17    6     7     1
18    6     76    1
19    6     77    1
20    7     8     1
21    7     78    1
22    7     79    1
23    8     9     1
24    8     80    1
25    8     81    1
26    9     10    1
27    9     82    1
28    9     83    1
29    10    11    2
30    10    12    1
31    12    13    1
32    13    14    1
33    13    84    1
34    13    85    1
35    14    15    1
36    14    86    1
37    14    87    1
38    15    16    am
39    15    88    1
40    16    17    2
41    16    18    1
42    18    19    1
43    18    89    1
44    18    90    1
45    19    20    1
46    19    91    1
47    19    92    1
48    20    21    am
49    20    93    1
50    21    22    2
51    21    23    1
52    23    24    1
53    23    25    1
54    23    26    1
55    25    94    1
56    26    27    1
57    26    28    1
58    26    29    1
59    27    95    1
60    27    96    1
61    27    97    1
62    28    98    1
63    28    99    1
64    28    100   1
65    29    30    1
66    29    101   1
67    29    102   1
68    30    31    1
69    31    32    ar
70    31    33    ar
71    31    34    1
72    34    35    1
73    35    36    ar
74    35    37    ar
75    35    38    1
76    38    39    1
77    39    40    1
78    39    103   1
79    39    104   1
80    40    41    1
81    40    58    1
82    40    42    1
83    42    43    1
84    43    44    1
85    43    45    1
86    43    55    1
87    45    54    1
88    45    46    1
89    46    47    2
90    46    105   1
91    47    48    1
92    48    54    ar
93    48    49    ar
94    49    50    1
95    49    51    ar
96    50    106   1
97    50    107   1
98    51    52    ar
99    52    53    ar
100   52    108   1
101   53    54    ar
102   55    56    1
103   55    57    1
104   55    58    1
105   57    109   1
106   58    59    1
107   58    60    1
108   60    61    1
109   61    62    ar
110   61    63    ar
111   61    64    ar
@<TRIPOS>SUBSTRUCTURE
1   ZINC000096014554 1     RESIDUE    1   A     ZIN   1
@<TRIPOS>MOLECULE
ZINC000096068398
100   102   1     0     0
SMALL
USER_CHARGES
@<TRIPOS>ATOM
1      C1     -2.3137  -26.4750    2.1939 C.3      1 ZINC000096068398   -0.1500
2      C2     -2.0718  -24.9675    2.0945 C.3      1 ZINC000096068398   -0.1300
3      C3     -3.4120  -24.2447    1.9452 C.3      1 ZINC000096068398   -0.1200
4      C4     -3.1700  -22.7372    1.8458 C.3      1 ZINC000096068398   -0.1200
5      C5     -4.5102  -22.0144    1.6965 C.3      1 ZINC000096068398   -0.1100
6      C6     -4.2683  -20.5069    1.5971 C.3      1 ZINC000096068398   -0.1500
7      C7     -5.5884  -19.7949    1.4500 C.2      1 ZINC000096068398    0.3300
8      O8     -6.6214  -20.4309    1.4270 O.2      1 ZINC000096068398   -0.4500
9      S9     -5.6304  -18.0887    1.3155 S.3      1 ZINC000096068398   -0.1200
10     C10    -7.4157  -17.8287    1.1708 C.3      1 ZINC000096068398   -0.1200
11     C11    -7.7038  -16.3322    1.0353 C.3      1 ZINC000096068398    0.1400
12     N12    -9.1489  -16.1217    0.9182 N.am     1 ZINC000096068398   -0.7300
13     C13    -9.6397  -14.8733    0.7876 C.2      1 ZINC000096068398    0.5200
14     O14    -8.8850  -13.9241    0.7671 O.2      1 ZINC000096068398   -0.5300
15     C15   -11.1262  -14.6568    0.6672 C.3      1 ZINC000096068398   -0.1500
16     C16   -11.4143  -13.1603    0.5316 C.3      1 ZINC000096068398    0.1400
17     N17   -12.8593  -12.9499    0.4145 N.am     1 ZINC000096068398   -0.7400
18     C18   -13.3501  -11.7014    0.2840 C.2      1 ZINC000096068398    0.5000
19     O19   -12.6059  -10.7466    0.3567 O.2      1 ZINC000096068398   -0.5300
20     C20   -14.8237  -11.4920    0.0477 C.3      1 ZINC000096068398    0.1000
21     H21   -15.1970  -10.7310    0.7330 H        1 ZINC000096068398    0.1400
22     O22   -15.5212  -12.7188    0.2723 O.3      1 ZINC000096068398   -0.5500
23     C23   -15.0488  -11.0340   -1.3947 C.3      1 ZINC000096068398   -0.0900
24     C24   -14.4275   -9.6499   -1.5932 C.3      1 ZINC000096068398   -0.1400
25     C25   -14.3936  -12.0295   -2.3541 C.3      1 ZINC000096068398   -0.1400
26     C26   -16.5505  -10.9644   -1.6792 C.3      1 ZINC000096068398    0.1500
27     O27   -16.7608  -10.5366   -3.0263 O.3      1 ZINC000096068398   -0.7700
28     P28   -18.2253  -10.3519   -3.6692 P.3      1 ZINC000096068398    2.2900
29     O29   -19.0245  -11.6653   -3.5157 O.co2    1 ZINC000096068398   -1.1000
30     O30   -18.9673   -9.2094   -2.9405 O.co2    1 ZINC000096068398   -1.1100
31     O31   -18.0838   -9.9893   -5.2314 O.3      1 ZINC000096068398   -1.0900
32     P32   -19.1063   -9.9821   -6.4750 P.3      1 ZINC000096068398    2.2900
33     O33   -20.0333  -11.2150   -6.3867 O.co2    1 ZINC000096068398   -1.1000
34     O34   -19.9578   -8.6936   -6.4342 O.co2    1 ZINC000096068398   -1.1000
35     O35   -18.2755  -10.0330   -7.8532 O.3      1 ZINC000096068398   -0.7700
36     C36   -18.8991  -10.1430   -9.1342 C.3      1 ZINC000096068398    0.1400
37     C37   -17.8254  -10.1644  -10.2240 C.3      1 ZINC000096068398    0.0700
38     H38   -17.1727   -9.2965  -10.1297 H        1 ZINC000096068398    0.1000
39     O39   -17.0550  -11.3836  -10.1467 O.3      1 ZINC000096068398   -0.3500
40     C40   -16.4499  -11.5345  -11.4494 C.3      1 ZINC000096068398    0.2600
41     H41   -15.5861  -10.8767  -11.5451 H        1 ZINC000096068398    0.1200
42     N42   -16.0555  -12.9281  -11.6702 N.pl3    1 ZINC000096068398   -0.4500
43     C43   -16.5863  -14.0235  -11.0565 C.2      1 ZINC000096068398    0.2900
44     N44   -16.0014  -15.1026  -11.4891 N.2      1 ZINC000096068398   -0.4800
45     C45   -15.0608  -14.7693  -12.4052 C.ar     1 ZINC000096068398   -0.1000
46     C46   -14.1430  -15.4912  -13.1868 C.ar     1 ZINC000096068398    0.5000
47     N47   -14.0744  -16.8709  -13.1047 N.pl3    1 ZINC000096068398   -0.8300
48     N48   -13.3427  -14.8182  -14.0072 N.ar     1 ZINC000096068398   -0.6000
49     C49   -13.4015  -13.5018  -14.0925 C.ar     1 ZINC000096068398    0.3400
50     N50   -14.2444  -12.7844  -13.3798 N.ar     1 ZINC000096068398   -0.5400
51     C51   -15.0882  -13.3704  -12.5368 C.ar     1 ZINC000096068398    0.2900
52     C52   -17.5539  -11.1210  -12.4477 C.3      1 ZINC000096068398    0.0600
53     H53   -18.1004  -11.9970  -12.7972 H        1 ZINC000096068398    0.0700
54     O54   -16.9900  -10.4107  -13.5520 O.3      1 ZINC000096068398   -0.5000
55     C55   -18.4796  -10.1959  -11.6230 C.3      1 ZINC000096068398    0.1500
56     H56   -19.4841  -10.6150  -11.5641 H        1 ZINC000096068398    0.0800
57     O57   -18.5174   -8.8868  -12.1947 O.3      1 ZINC000096068398   -0.7200
58     P58   -19.8787   -8.1869  -12.6938 P.3      1 ZINC000096068398    2.1200
59     O59   -20.5999   -9.1223  -13.7230 O.co2    1 ZINC000096068398   -1.1900
60     O60   -20.8190   -7.9386  -11.4656 O.co2    1 ZINC000096068398   -1.1700
61     O61   -19.5417   -6.8186  -13.3785 O.co2    1 ZINC000096068398   -1.1700
62     H62    -1.3589  -26.9900    2.3002 H        1 ZINC000096068398    0.0500
63     H63    -2.9390  -26.6862    3.0613 H        1 ZINC000096068398    0.0500
64     H64    -2.8155  -26.8228    1.2909 H        1 ZINC000096068398    0.0500
65     H65    -1.5700  -24.6197    2.9975 H        1 ZINC000096068398    0.0600
66     H66    -1.4464  -24.7563    1.2271 H        1 ZINC000096068398    0.0600
67     H67    -3.9137  -24.5925    1.0422 H        1 ZINC000096068398    0.0600
68     H68    -4.0373  -24.4559    2.8126 H        1 ZINC000096068398    0.0600
69     H69    -2.6683  -22.3894    2.7488 H        1 ZINC000096068398    0.0600
70     H70    -2.5447  -22.5260    0.9784 H        1 ZINC000096068398    0.0600
71     H71    -5.0120  -22.3621    0.7935 H        1 ZINC000096068398    0.0700
72     H72    -5.1356  -22.2256    2.5639 H        1 ZINC000096068398    0.0700
73     H73    -3.7665  -20.1591    2.5001 H        1 ZINC000096068398    0.1000
74     H74    -3.6430  -20.2957    0.7297 H        1 ZINC000096068398    0.1100
75     H75    -7.7889  -18.3517    0.2903 H        1 ZINC000096068398    0.1000
76     H76    -7.9125  -18.2152    2.0608 H        1 ZINC000096068398    0.1000
77     H77    -7.3307  -15.8091    1.9158 H        1 ZINC000096068398    0.0800
78     H78    -7.2071  -15.9457    0.1454 H        1 ZINC000096068398    0.0800
79     H79    -9.7525  -16.8809    0.9346 H        1 ZINC000096068398    0.4000
80     H80   -11.4994  -15.1799   -0.2133 H        1 ZINC000096068398    0.1100
81     H81   -11.6229  -15.0433    1.5571 H        1 ZINC000096068398    0.1000
82     H82   -11.0411  -12.6373    1.4121 H        1 ZINC000096068398    0.0700
83     H83   -10.9175  -12.7738   -0.3583 H        1 ZINC000096068398    0.0800
84     H84   -13.4629  -13.7090    0.4310 H        1 ZINC000096068398    0.4000
85     H85   -15.2398  -13.4424   -0.3041 H        1 ZINC000096068398    0.3700
86     H86   -13.3468   -9.7153   -1.4668 H        1 ZINC000096068398    0.0600
87     H87   -14.6549   -9.2901   -2.5966 H        1 ZINC000096068398    0.0800
88     H88   -14.8382   -8.9584   -0.8575 H        1 ZINC000096068398    0.0500
89     H89   -14.8362  -13.0155   -2.2127 H        1 ZINC000096068398    0.0500
90     H90   -14.5540  -11.7032   -3.3817 H        1 ZINC000096068398    0.0800
91     H91   -13.3237  -12.0790   -2.1514 H        1 ZINC000096068398    0.0400
92     H92   -16.9932  -11.9504   -1.5378 H        1 ZINC000096068398    0.0600
93     H93   -17.0173  -10.2552   -0.9957 H        1 ZINC000096068398    0.0500
94     H94   -19.4796  -11.0645   -9.1779 H        1 ZINC000096068398    0.0600
95     H95   -19.5593   -9.2900   -9.2914 H        1 ZINC000096068398    0.1000
96     H96   -17.3755  -13.9994  -10.3196 H        1 ZINC000096068398    0.2300
97     H97   -14.6641  -17.3509  -12.5024 H        1 ZINC000096068398    0.4200
98     H98   -13.4366  -17.3581  -13.6495 H        1 ZINC000096068398    0.4000
99     H99   -12.7327  -12.9946  -14.7721 H        1 ZINC000096068398    0.2000
100    H100  -16.3556  -10.9262  -14.0685 H        1 ZINC000096068398    0.3500
@<TRIPOS>BOND
1     1     2     1
2     1     62    1
3     1     63    1
4     1     64    1
5     2     3     1
6     2     65    1
7     2     66    1
8     3     4     1
9     3     67    1
10    3     68    1
11    4     5     1
12    4     69    1
13    4     70    1
14    5     6     1
15    5     71    1
16    5     72    1
17    6     7     1
18    6     73    1
19    6     74    1
20    7     8     2
21    7     9     1
22    9     10    1
23    10    11    1
24    10    75    1
25    10    76    1
26    11    12    1
27    11    77    1
28    11    78    1
29    12    13    am
30    12    79    1
31    13    14    2
32    13    15    1
33    15    16    1
34    15    80    1
35    15    81    1
36    16    17    1
37    16    82    1
38    16    83    1
39    17    18    am
40    17    84    1
41    18    19    2
42    18    20    1
43    20    21    1
44    20    22    1
45    20    23    1
46    22    85    1
47    23    24    1
48    23    25    1
49    23    26    1
50    24    86    1
51    24    87    1
52    24    88    1
53    25    89    1
54    25    90    1
55    25    91    1
56    26    27    1
57    26    92    1
58    26    93    1
59    27    28    1
60    28    29    ar
61    28    30    ar
62    28    31    1
63    31    32    1
64    32    33    ar
65    32    34    ar
66    32    35    1
67    35    36    1
68    36    37    1
69    36    94    1
70    36    95    1
71    37    38    1
72    37    55    1
73    37    39    1
74    39    40    1
75    40    41    1
76    40    42    1
77    40    52    1
78    42    51    1
79    42    43    1
80    43    44    2
81    43    96    1
82    44    45    1
83    45    51    ar
84    45    46    ar
85    46    47    1
86    46    48    ar
87    47    97    1
88    47    98    1
89    48    49    ar
90    49    50    ar
91    49    99    1
92    50    51    ar
93    52    53    1
94    52    54    1
95    52    55    1
96    54    100   1
97    55    56    1
98    55    57    1
99    57    58    1
100   58    59    ar
101   58    60    ar
102   58    61    ar
@<TRIPOS>SUBSTRUCTURE
1   ZINC000096068398 1     RESIDUE    1   A     ZIN   1
@<TRIPOS>MOLECULE
ZINC000096014518
95    97    1     0     0
SMALL
USER_CHARGES
@<TRIPOS>ATOM
1      C1      9.5402   -4.9268  -15.1940 C.3      1 ZINC000096014518   -0.1900
2      C2      9.0389   -6.0973  -14.3458 C.3      1 ZINC000096014518    0.1200
3      H3      9.8908   -6.6443  -13.9418 H        1 ZINC000096014518    0.1000
4      O4      8.2531   -6.9719  -15.1580 O.3      1 ZINC000096014518   -0.5500
5      C5      8.1833   -5.5637  -13.1952 C.3      1 ZINC000096014518   -0.1500
6      H6      7.3314   -5.0167  -13.5992 H        1 ZINC000096014518    0.1100
7      C7      9.0246   -4.6273  -12.3256 C.3      1 ZINC000096014518   -0.1500
8      C8      7.6895   -6.7167  -12.3597 C.2      1 ZINC000096014518    0.3300
9      O9      7.9923   -7.8537  -12.6556 O.2      1 ZINC000096014518   -0.4200
10     S10     6.7013   -6.4221  -10.9931 S.3      1 ZINC000096014518   -0.1200
11     C11     6.4395   -8.1198  -10.4227 C.3      1 ZINC000096014518   -0.1200
12     C12     5.5571   -8.1075   -9.1729 C.3      1 ZINC000096014518    0.1400
13     N13     5.3452   -9.4816   -8.7112 N.am     1 ZINC000096014518   -0.7300
14     C14     4.5934   -9.7167   -7.6176 C.2      1 ZINC000096014518    0.5200
15     O15     4.0922   -8.7906   -7.0157 O.2      1 ZINC000096014518   -0.5300
16     C16     4.3754  -11.1302   -7.1426 C.3      1 ZINC000096014518   -0.1500
17     C17     3.4930  -11.1179   -5.8928 C.3      1 ZINC000096014518    0.1400
18     N18     3.2811  -12.4920   -5.4311 N.am     1 ZINC000096014518   -0.7400
19     C19     2.5293  -12.7271   -4.3375 C.2      1 ZINC000096014518    0.5000
20     O20     2.1037  -11.7988   -3.6832 O.2      1 ZINC000096014518   -0.5200
21     C21     2.2175  -14.1434   -3.9277 C.3      1 ZINC000096014518    0.1000
22     H22     1.1402  -14.2581   -3.8077 H        1 ZINC000096014518    0.1400
23     O23     2.6832  -15.0441   -4.9346 O.3      1 ZINC000096014518   -0.5500
24     C24     2.9145  -14.4559   -2.6020 C.3      1 ZINC000096014518   -0.0900
25     C25     4.4109  -14.1640   -2.7313 C.3      1 ZINC000096014518   -0.1400
26     C26     2.3188  -13.5842   -1.4947 C.3      1 ZINC000096014518   -0.1400
27     C27     2.7110  -15.9319   -2.2543 C.3      1 ZINC000096014518    0.1500
28     O28     3.3620  -16.2237   -1.0161 O.3      1 ZINC000096014518   -0.7700
29     P29     3.3534  -17.6869   -0.3445 P.3      1 ZINC000096014518    2.2900
30     O30     1.8948  -18.1677   -0.1760 O.co2    1 ZINC000096014518   -1.1000
31     O31     4.1196  -18.6748   -1.2524 O.co2    1 ZINC000096014518   -1.1100
32     O32     4.0664  -17.6198    1.0974 O.3      1 ZINC000096014518   -1.0900
33     P33     4.1159  -18.6077    2.3677 P.3      1 ZINC000096014518    2.2900
34     O34     2.7197  -19.2307    2.5903 O.co2    1 ZINC000096014518   -1.1000
35     O35     5.1451  -19.7302    2.1074 O.co2    1 ZINC000096014518   -1.1000
36     O36     4.5477  -17.7768    3.6773 O.3      1 ZINC000096014518   -0.7700
37     C37     4.5818  -18.3493    4.9862 C.3      1 ZINC000096014518    0.1400
38     C38     5.0330  -17.2906    5.9944 C.3      1 ZINC000096014518    0.0700
39     H39     5.9822  -16.8531    5.6849 H        1 ZINC000096014518    0.1000
40     O40     4.0264  -16.2638    6.1296 O.3      1 ZINC000096014518   -0.3500
41     C41     4.2970  -15.6304    7.3990 C.3      1 ZINC000096014518    0.2600
42     H42     5.1339  -14.9381    7.3069 H        1 ZINC000096014518    0.1200
43     N43     3.1059  -14.9278    7.8826 N.pl3    1 ZINC000096014518   -0.4500
44     C44     1.8146  -15.2003    7.5414 C.2      1 ZINC000096014518    0.2900
45     N45     1.0103  -14.3821    8.1556 N.2      1 ZINC000096014518   -0.4800
46     C46     1.7322  -13.5350    8.9279 C.ar     1 ZINC000096014518   -0.1000
47     C47     1.4162  -12.4713    9.7899 C.ar     1 ZINC000096014518    0.5000
48     N48     0.1011  -12.0914    9.9932 N.pl3    1 ZINC000096014518   -0.8300
49     N49     2.4097  -11.8388   10.4058 N.ar     1 ZINC000096014518   -0.6000
50     C50     3.6674  -12.1947   10.2182 C.ar     1 ZINC000096014518    0.3400
51     N51     4.0104  -13.1840    9.4203 N.ar     1 ZINC000096014518   -0.5400
52     C52     3.0852  -13.8788    8.7666 C.ar     1 ZINC000096014518    0.2900
53     C53     4.6622  -16.7920    8.3497 C.3      1 ZINC000096014518    0.0600
54     H54     3.7839  -17.1223    8.9041 H        1 ZINC000096014518    0.0700
55     O55     5.7003  -16.3960    9.2484 O.3      1 ZINC000096014518   -0.5000
56     C56     5.1604  -17.9100    7.4038 C.3      1 ZINC000096014518    0.1500
57     H57     4.5276  -18.7933    7.4900 H        1 ZINC000096014518    0.0800
58     O58     6.5207  -18.2401    7.6916 O.3      1 ZINC000096014518   -0.7200
59     P59     6.9940  -19.7210    8.1096 P.3      1 ZINC000096014518    2.1200
60     O60     6.1671  -20.2029    9.3500 O.co2    1 ZINC000096014518   -1.1900
61     O61     6.7581  -20.7024    6.9114 O.co2    1 ZINC000096014518   -1.1700
62     O62     8.5175  -19.6988    8.4743 O.co2    1 ZINC000096014518   -1.1700
63     H63     8.6884   -4.3798  -15.5980 H        1 ZINC000096014518    0.0600
64     H64    10.1396   -4.2597  -14.5745 H        1 ZINC000096014518    0.0700
65     H65    10.1498   -5.3069  -16.0137 H        1 ZINC000096014518    0.0700
66     H66     7.4763   -6.5513  -15.5513 H        1 ZINC000096014518    0.3700
67     H67     8.4150   -4.2472  -11.5059 H        1 ZINC000096014518    0.0700
68     H68     9.8765   -5.1743  -11.9216 H        1 ZINC000096014518    0.0700
69     H69     9.3818   -3.7934  -12.9299 H        1 ZINC000096014518    0.0800
70     H70     5.9494   -8.6954  -11.2079 H        1 ZINC000096014518    0.1000
71     H71     7.4007   -8.5752  -10.1843 H        1 ZINC000096014518    0.1000
72     H72     6.0472   -7.5319   -8.3877 H        1 ZINC000096014518    0.0800
73     H73     4.5959   -7.6520   -9.4112 H        1 ZINC000096014518    0.0800
74     H74     5.7460  -10.2222   -9.1926 H        1 ZINC000096014518    0.4000
75     H75     3.8853  -11.7058   -7.9278 H        1 ZINC000096014518    0.1000
76     H76     5.3366  -11.5857   -6.9043 H        1 ZINC000096014518    0.1100
77     H77     3.9831  -10.5423   -5.1076 H        1 ZINC000096014518    0.0800
78     H78     2.5318  -10.6624   -6.1312 H        1 ZINC000096014518    0.0700
79     H79     3.6819  -13.2326   -5.9125 H        1 ZINC000096014518    0.4000
80     H80     3.6356  -14.9965   -5.0948 H        1 ZINC000096014518    0.3700
81     H81     4.5559  -13.1125   -2.9790 H        1 ZINC000096014518    0.0400
82     H82     4.9074  -14.3867   -1.7869 H        1 ZINC000096014518    0.0800
83     H83     4.8353  -14.7850   -3.5202 H        1 ZINC000096014518    0.0500
84     H84     1.2358  -13.7072   -1.4785 H        1 ZINC000096014518    0.0500
85     H85     2.7330  -13.8855   -0.5326 H        1 ZINC000096014518    0.0800
86     H86     2.5630  -12.5389   -1.6841 H        1 ZINC000096014518    0.0600
87     H87     1.6450  -16.1398   -2.1622 H        1 ZINC000096014518    0.0500
88     H88     3.1354  -16.5529   -3.0432 H        1 ZINC000096014518    0.0600
89     H89     3.5866  -18.7047    5.2533 H        1 ZINC000096014518    0.0600
90     H90     5.2816  -19.1849    4.9991 H        1 ZINC000096014518    0.1000
91     H91     1.5047  -15.9798    6.8611 H        1 ZINC000096014518    0.2300
92     H92    -0.6153  -12.5611    9.5381 H        1 ZINC000096014518    0.4200
93     H93    -0.1043  -11.3554   10.5907 H        1 ZINC000096014518    0.4000
94     H94     4.4438  -11.6536   10.7386 H        1 ZINC000096014518    0.2000
95     H95     5.4611  -15.6571    9.8245 H        1 ZINC000096014518    0.3500
@<TRIPOS>BOND
1     1     2     1
2     1     63    1
3     1     64    1
4     1     65    1
5     2     3     1
6     2     4     1
7     2     5     1
8     4     66    1
9     5     6     1
10    5     7     1
11    5     8     1
12    7     67    1
13    7     68    1
14    7     69    1
15    8     9     2
16    8     10    1
17    10    11    1
18    11    12    1
19    11    70    1
20    11    71    1
21    12    13    1
22    12    72    1
23    12    73    1
24    13    14    am
25    13    74    1
26    14    15    2
27    14    16    1
28    16    17    1
29    16    75    1
30    16    76    1
31    17    18    1
32    17    77    1
33    17    78    1
34    18    19    am
35    18    79    1
36    19    20    2
37    19    21    1
38    21    22    1
39    21    23    1
40    21    24    1
41    23    80    1
42    24    25    1
43    24    26    1
44    24    27    1
45    25    81    1
46    25    82    1
47    25    83    1
48    26    84    1
49    26    85    1
50    26    86    1
51    27    28    1
52    27    87    1
53    27    88    1
54    28    29    1
55    29    30    ar
56    29    31    ar
57    29    32    1
58    32    33    1
59    33    34    ar
60    33    35    ar
61    33    36    1
62    36    37    1
63    37    38    1
64    37    89    1
65    37    90    1
66    38    39    1
67    38    56    1
68    38    40    1
69    40    41    1
70    41    42    1
71    41    43    1
72    41    53    1
73    43    52    1
74    43    44    1
75    44    45    2
76    44    91    1
77    45    46    1
78    46    52    ar
79    46    47    ar
80    47    48    1
81    47    49    ar
82    48    92    1
83    48    93    1
84    49    50    ar
85    50    51    ar
86    50    94    1
87    51    52    ar
88    53    54    1
89    53    55    1
90    53    56    1
91    55    95    1
92    56    57    1
93    56    58    1
94    58    59    1
95    59    60    ar
96    59    61    ar
97    59    62    ar
@<TRIPOS>SUBSTRUCTURE
1   ZINC000096014518 1     RESIDUE    1   A     ZIN   1
@<TRIPOS>MOLECULE
ZINC000096014522
90    92    1     0     0
SMALL
USER_CHARGES
@<TRIPOS>ATOM
1      C1    -16.6067   -8.7599   -0.7013 C.3      1 ZINC000096014522   -0.2000
2      C2    -15.2703   -9.4550   -0.6573 C.2      1 ZINC000096014522    0.3500
3      O3    -15.2116  -10.6574   -0.7535 O.2      1 ZINC000096014522   -0.4200
4      C4    -14.0071   -8.6497   -0.4933 C.3      1 ZINC000096014522   -0.2000
5      C5    -12.8188   -9.5764   -0.4801 C.2      1 ZINC000096014522    0.3200
6      O6    -12.9816  -10.7734   -0.5928 O.2      1 ZINC000096014522   -0.4100
7      S7    -11.2390   -8.9401   -0.3061 S.3      1 ZINC000096014522   -0.1200
8      C8    -10.2756  -10.4714   -0.3607 C.3      1 ZINC000096014522   -0.1200
9      C9     -8.7878  -10.1433   -0.2195 C.3      1 ZINC000096014522    0.1400
10     N10    -8.0081  -11.3827   -0.2637 N.am     1 ZINC000096014522   -0.7300
11     C11    -6.6652  -11.3382   -0.1573 C.2      1 ZINC000096014522    0.5200
12     O12    -6.1024  -10.2721   -0.0250 O.2      1 ZINC000096014522   -0.5300
13     C13    -5.8631  -12.6132   -0.2027 C.3      1 ZINC000096014522   -0.1500
14     C14    -4.3754  -12.2851   -0.0616 C.3      1 ZINC000096014522    0.1400
15     N15    -3.5956  -13.5246   -0.1057 N.am     1 ZINC000096014522   -0.7400
16     C16    -2.2528  -13.4801    0.0006 C.2      1 ZINC000096014522    0.5000
17     O17    -1.6828  -12.4103    0.0413 O.2      1 ZINC000096014522   -0.5200
18     C18    -1.4595  -14.7596    0.0690 C.3      1 ZINC000096014522    0.1000
19     H19    -0.8085  -14.7372    0.9430 H        1 ZINC000096014522    0.1400
20     O20    -2.3538  -15.8696    0.1695 O.3      1 ZINC000096014522   -0.5500
21     C21    -0.6105  -14.9015   -1.1959 C.3      1 ZINC000096014522   -0.0900
22     C22    -1.5106  -14.7963   -2.4287 C.3      1 ZINC000096014522   -0.1400
23     C23     0.4383  -13.7882   -1.2337 C.3      1 ZINC000096014522   -0.1400
24     C24     0.0896  -16.2619   -1.1902 C.3      1 ZINC000096014522    0.1500
25     O25     0.8826  -16.3944   -2.3716 O.3      1 ZINC000096014522   -0.7700
26     P26     1.7596  -17.7048   -2.6965 P.3      1 ZINC000096014522    2.2900
27     O27     2.7137  -17.9918   -1.5157 O.co2    1 ZINC000096014522   -1.1000
28     O28     0.8209  -18.9140   -2.9057 O.co2    1 ZINC000096014522   -1.1100
29     O29     2.6207  -17.4562   -4.0340 O.3      1 ZINC000096014522   -1.0900
30     P30     3.8786  -18.2008   -4.7088 P.3      1 ZINC000096014522    2.2900
31     O31     4.8776  -18.6239   -3.6087 O.co2    1 ZINC000096014522   -1.1000
32     O32     3.3886  -19.4535   -5.4688 O.co2    1 ZINC000096014522   -1.1000
33     O33     4.6063  -17.1992   -5.7380 O.3      1 ZINC000096014522   -0.7700
34     C34     5.8183  -17.5289   -6.4195 C.3      1 ZINC000096014522    0.1400
35     C35     6.2337  -16.3603   -7.3155 C.3      1 ZINC000096014522    0.0700
36     H36     5.4176  -16.0873   -7.9846 H        1 ZINC000096014522    0.1000
37     O37     6.6264  -15.2259   -6.5126 O.3      1 ZINC000096014522   -0.3500
38     C38     7.4395  -14.4078   -7.3816 C.3      1 ZINC000096014522    0.2600
39     H39     6.8097  -13.8349   -8.0622 H        1 ZINC000096014522    0.1200
40     N40     8.2849  -13.5089   -6.5920 N.pl3    1 ZINC000096014522   -0.4500
41     C41     8.6819  -13.7008   -5.3021 C.2      1 ZINC000096014522    0.2900
42     N42     9.4255  -12.7062   -4.9130 N.2      1 ZINC000096014522   -0.4800
43     C43     9.5526  -11.8152   -5.9256 C.ar     1 ZINC000096014522   -0.1000
44     C44    10.2171  -10.5873   -6.0838 C.ar     1 ZINC000096014522    0.5000
45     N45    10.9522  -10.0412   -5.0462 N.pl3    1 ZINC000096014522   -0.8300
46     N46    10.1237   -9.9628   -7.2533 N.ar     1 ZINC000096014522   -0.6000
47     C47     9.4250  -10.4766   -8.2490 C.ar     1 ZINC000096014522    0.3400
48     N48     8.7861  -11.6230   -8.1463 N.ar     1 ZINC000096014522   -0.5400
49     C49     8.8272  -12.3224   -7.0170 C.ar     1 ZINC000096014522    0.2900
50     C50     8.3084  -15.4125   -8.1703 C.3      1 ZINC000096014522    0.0600
51     H51     9.2755  -15.5443   -7.6851 H        1 ZINC000096014522    0.0700
52     O52     8.4821  -14.9735   -9.5191 O.3      1 ZINC000096014522   -0.5000
53     C53     7.4951  -16.7276   -8.1280 C.3      1 ZINC000096014522    0.1500
54     H54     8.0600  -17.5099   -7.6210 H        1 ZINC000096014522    0.0800
55     O55     7.1441  -17.1420   -9.4498 O.3      1 ZINC000096014522   -0.7200
56     P56     7.5748  -18.5657  -10.0659 P.3      1 ZINC000096014522    2.1200
57     O57     9.1299  -18.7285   -9.9671 O.co2    1 ZINC000096014522   -1.1900
58     O58     6.8773  -19.7152   -9.2618 O.co2    1 ZINC000096014522   -1.1700
59     O59     7.1364  -18.6388  -11.5682 O.co2    1 ZINC000096014522   -1.1700
60     H60   -17.3974   -9.5001   -0.8237 H        1 ZINC000096014522    0.0800
61     H61   -16.7622   -8.2124    0.2284 H        1 ZINC000096014522    0.0900
62     H62   -16.6270   -8.0644   -1.5403 H        1 ZINC000096014522    0.0900
63     H63   -13.9124   -7.9493   -1.3232 H        1 ZINC000096014522    0.1400
64     H64   -14.0476   -8.0974    0.4455 H        1 ZINC000096014522    0.1400
65     H65   -10.5830  -11.1234    0.4569 H        1 ZINC000096014522    0.1000
66     H66   -10.4478  -10.9754   -1.3117 H        1 ZINC000096014522    0.1100
67     H67    -8.4804   -9.4913   -1.0371 H        1 ZINC000096014522    0.0800
68     H68    -8.6156   -9.6394    0.7316 H        1 ZINC000096014522    0.0800
69     H69    -8.4582  -12.2354   -0.3695 H        1 ZINC000096014522    0.4000
70     H70    -6.1706  -13.2652    0.6149 H        1 ZINC000096014522    0.1000
71     H71    -6.0354  -13.1172   -1.1538 H        1 ZINC000096014522    0.1100
72     H72    -4.0680  -11.6331   -0.8791 H        1 ZINC000096014522    0.0800
73     H73    -4.2031  -11.7812    0.8895 H        1 ZINC000096014522    0.0700
74     H74    -4.0458  -14.3772   -0.2115 H        1 ZINC000096014522    0.4000
75     H75    -2.9641  -15.9518   -0.5761 H        1 ZINC000096014522    0.3700
76     H76    -2.0094  -13.8271   -2.4327 H        1 ZINC000096014522    0.0400
77     H77    -0.9057  -14.8974   -3.3298 H        1 ZINC000096014522    0.0800
78     H78    -2.2578  -15.5894   -2.4018 H        1 ZINC000096014522    0.0500
79     H79     1.0057  -13.7919   -0.3030 H        1 ZINC000096014522    0.0500
80     H80     1.1146  -13.9545   -2.0722 H        1 ZINC000096014522    0.0800
81     H81    -0.0581  -12.8252   -1.3528 H        1 ZINC000096014522    0.0600
82     H82     0.7308  -16.3368   -0.3119 H        1 ZINC000096014522    0.0500
83     H83    -0.6576  -17.0550   -1.1633 H        1 ZINC000096014522    0.0600
84     H84     6.6039  -17.7242   -5.6896 H        1 ZINC000096014522    0.0600
85     H85     5.6612  -18.4175   -7.0308 H        1 ZINC000096014522    0.1000
86     H86     8.4178  -14.5525   -4.6927 H        1 ZINC000096014522    0.2300
87     H87    11.0131  -10.5068   -4.1974 H        1 ZINC000096014522    0.4200
88     H88    11.4065   -9.1928   -5.1677 H        1 ZINC000096014522    0.4000
89     H89     9.3754   -9.9358   -9.1825 H        1 ZINC000096014522    0.2000
90     H90     8.9341  -14.1225   -9.6006 H        1 ZINC000096014522    0.3500
@<TRIPOS>BOND
1     1     2     1
2     1     60    1
3     1     61    1
4     1     62    1
5     2     3     2
6     2     4     1
7     4     5     1
8     4     63    1
9     4     64    1
10    5     6     2
11    5     7     1
12    7     8     1
13    8     9     1
14    8     65    1
15    8     66    1
16    9     10    1
17    9     67    1
18    9     68    1
19    10    11    am
20    10    69    1
21    11    12    2
22    11    13    1
23    13    14    1
24    13    70    1
25    13    71    1
26    14    15    1
27    14    72    1
28    14    73    1
29    15    16    am
30    15    74    1
31    16    17    2
32    16    18    1
33    18    19    1
34    18    20    1
35    18    21    1
36    20    75    1
37    21    22    1
38    21    23    1
39    21    24    1
40    22    76    1
41    22    77    1
42    22    78    1
43    23    79    1
44    23    80    1
45    23    81    1
46    24    25    1
47    24    82    1
48    24    83    1
49    25    26    1
50    26    27    ar
51    26    28    ar
52    26    29    1
53    29    30    1
54    30    31    ar
55    30    32    ar
56    30    33    1
57    33    34    1
58    34    35    1
59    34    84    1
60    34    85    1
61    35    36    1
62    35    53    1
63    35    37    1
64    37    38    1
65    38    39    1
66    38    40    1
67    38    50    1
68    40    49    1
69    40    41    1
70    41    42    2
71    41    86    1
72    42    43    1
73    43    49    ar
74    43    44    ar
75    44    45    1
76    44    46    ar
77    45    87    1
78    45    88    1
79    46    47    ar
80    47    48    ar
81    47    89    1
82    48    49    ar
83    50    51    1
84    50    52    1
85    50    53    1
86    52    90    1
87    53    54    1
88    53    55    1
89    55    56    1
90    56    57    ar
91    56    58    ar
92    56    59    ar
@<TRIPOS>SUBSTRUCTURE
1   ZINC000096014522 1     RESIDUE    1   A     ZIN   1
@<TRIPOS>MOLECULE
ZINC000096014538
102   104   1     0     0
SMALL
USER_CHARGES
@<TRIPOS>ATOM
1      C1    -24.3696  -13.5222   -1.1291 C.3      1 ZINC000096014538   -0.1500
2      C2    -23.0128  -14.2280   -1.0845 C.3      1 ZINC000096014538   -0.1300
3      C3    -21.9029  -13.1890   -0.9127 C.3      1 ZINC000096014538   -0.1200
4      C4    -20.5461  -13.8947   -0.8681 C.3      1 ZINC000096014538   -0.1100
5      C5    -19.4362  -12.8557   -0.6962 C.3      1 ZINC000096014538   -0.1700
6      C6    -18.0999  -13.5509   -0.6523 C.2      1 ZINC000096014538    0.3500
7      O7    -18.0412  -14.7532   -0.7485 O.2      1 ZINC000096014538   -0.4100
8      C8    -16.8367  -12.7456   -0.4883 C.3      1 ZINC000096014538   -0.2000
9      C9    -15.6483  -13.6722   -0.4751 C.2      1 ZINC000096014538    0.3200
10     O10   -15.8112  -14.8692   -0.5878 O.2      1 ZINC000096014538   -0.4100
11     S11   -14.0685  -13.0359   -0.3011 S.3      1 ZINC000096014538   -0.1200
12     C12   -13.1051  -14.5673   -0.3556 C.3      1 ZINC000096014538   -0.1200
13     C13   -11.6174  -14.2391   -0.2145 C.3      1 ZINC000096014538    0.1400
14     N14   -10.8376  -15.4786   -0.2586 N.am     1 ZINC000096014538   -0.7300
15     C15    -9.4948  -15.4341   -0.1523 C.2      1 ZINC000096014538    0.5200
16     O16    -8.9320  -14.3680   -0.0200 O.2      1 ZINC000096014538   -0.5300
17     C17    -8.6927  -16.7091   -0.1977 C.3      1 ZINC000096014538   -0.1500
18     C18    -7.2050  -16.3809   -0.0565 C.3      1 ZINC000096014538    0.1400
19     N19    -6.4252  -17.6204   -0.1007 N.am     1 ZINC000096014538   -0.7400
20     C20    -5.0824  -17.5759    0.0057 C.2      1 ZINC000096014538    0.5000
21     O21    -4.5124  -16.5061    0.0463 O.2      1 ZINC000096014538   -0.5200
22     C22    -4.2891  -18.8554    0.0740 C.3      1 ZINC000096014538    0.1000
23     H23    -3.6381  -18.8330    0.9480 H        1 ZINC000096014538    0.1400
24     O24    -5.1834  -19.9655    0.1745 O.3      1 ZINC000096014538   -0.5500
25     C25    -3.4401  -18.9973   -1.1909 C.3      1 ZINC000096014538   -0.0900
26     C26    -4.3402  -18.8921   -2.4237 C.3      1 ZINC000096014538   -0.1400
27     C27    -2.3913  -17.8840   -1.2286 C.3      1 ZINC000096014538   -0.1400
28     C28    -2.7400  -20.3577   -1.1852 C.3      1 ZINC000096014538    0.1500
29     O29    -1.9470  -20.4902   -2.3666 O.3      1 ZINC000096014538   -0.7700
30     P30    -1.0699  -21.8007   -2.6915 P.3      1 ZINC000096014538    2.2900
31     O31    -0.1159  -22.0877   -1.5106 O.co2    1 ZINC000096014538   -1.1000
32     O32    -2.0087  -23.0098   -2.9007 O.co2    1 ZINC000096014538   -1.1100
33     O33    -0.2088  -21.5521   -4.0289 O.3      1 ZINC000096014538   -1.0900
34     P34     1.0491  -22.2967   -4.7038 P.3      1 ZINC000096014538    2.2900
35     O35     2.0480  -22.7197   -3.6037 O.co2    1 ZINC000096014538   -1.1000
36     O36     0.5590  -23.5494   -5.4638 O.co2    1 ZINC000096014538   -1.1000
37     O37     1.7767  -21.2950   -5.7330 O.3      1 ZINC000096014538   -0.7700
38     C38     2.9887  -21.6247   -6.4145 C.3      1 ZINC000096014538    0.1400
39     C39     3.4041  -20.4561   -7.3105 C.3      1 ZINC000096014538    0.0700
40     H40     2.5880  -20.1832   -7.9795 H        1 ZINC000096014538    0.1000
41     O41     3.7968  -19.3217   -6.5075 O.3      1 ZINC000096014538   -0.3500
42     C42     4.6099  -18.5036   -7.3766 C.3      1 ZINC000096014538    0.2600
43     H43     3.9801  -17.9307   -8.0572 H        1 ZINC000096014538    0.1200
44     N44     5.4553  -17.6048   -6.5870 N.pl3    1 ZINC000096014538   -0.4500
45     C45     5.8523  -17.7967   -5.2970 C.2      1 ZINC000096014538    0.2900
46     N46     6.5959  -16.8020   -4.9080 N.2      1 ZINC000096014538   -0.4800
47     C47     6.7230  -15.9110   -5.9206 C.ar     1 ZINC000096014538   -0.1000
48     C48     7.3875  -14.6832   -6.0788 C.ar     1 ZINC000096014538    0.5000
49     N49     8.1226  -14.1370   -5.0412 N.pl3    1 ZINC000096014538   -0.8300
50     N50     7.2941  -14.0586   -7.2483 N.ar     1 ZINC000096014538   -0.6000
51     C51     6.5954  -14.5724   -8.2440 C.ar     1 ZINC000096014538    0.3400
52     N52     5.9566  -15.7189   -8.1412 N.ar     1 ZINC000096014538   -0.5400
53     C53     5.9976  -16.4183   -7.0120 C.ar     1 ZINC000096014538    0.2900
54     C54     5.4788  -19.5083   -8.1653 C.3      1 ZINC000096014538    0.0600
55     H55     6.4459  -19.6401   -7.6800 H        1 ZINC000096014538    0.0700
56     O56     5.6525  -19.0693   -9.5140 O.3      1 ZINC000096014538   -0.5000
57     C57     4.6656  -20.8235   -8.1230 C.3      1 ZINC000096014538    0.1500
58     H58     5.2304  -21.6057   -7.6159 H        1 ZINC000096014538    0.0800
59     O59     4.3145  -21.2378   -9.4448 O.3      1 ZINC000096014538   -0.7200
60     P60     4.7452  -22.6616  -10.0608 P.3      1 ZINC000096014538    2.1200
61     O61     6.3003  -22.8244   -9.9621 O.co2    1 ZINC000096014538   -1.1900
62     O62     4.0477  -23.8111   -9.2567 O.co2    1 ZINC000096014538   -1.1700
63     O63     4.3068  -22.7347  -11.5631 O.co2    1 ZINC000096014538   -1.1700
64     H64   -25.1603  -14.2624   -1.2515 H        1 ZINC000096014538    0.0500
65     H65   -24.5251  -12.9748   -0.1995 H        1 ZINC000096014538    0.0500
66     H66   -24.3899  -12.8267   -1.9681 H        1 ZINC000096014538    0.0500
67     H67   -22.9925  -14.9235   -0.2455 H        1 ZINC000096014538    0.0600
68     H68   -22.8573  -14.7754   -2.0141 H        1 ZINC000096014538    0.0600
69     H69   -21.9233  -12.4935   -1.7517 H        1 ZINC000096014538    0.0600
70     H70   -22.0585  -12.6415    0.0169 H        1 ZINC000096014538    0.0600
71     H71   -20.5258  -14.5902   -0.0291 H        1 ZINC000096014538    0.0700
72     H72   -20.3906  -14.4422   -1.7977 H        1 ZINC000096014538    0.0700
73     H73   -19.4566  -12.1602   -1.5353 H        1 ZINC000096014538    0.1000
74     H74   -19.5918  -12.3083    0.2334 H        1 ZINC000096014538    0.1000
75     H75   -16.7420  -12.0452   -1.3181 H        1 ZINC000096014538    0.1400
76     H76   -16.8772  -12.1932    0.4505 H        1 ZINC000096014538    0.1400
77     H77   -13.4126  -15.2193    0.4620 H        1 ZINC000096014538    0.1000
78     H78   -13.2774  -15.0712   -1.3067 H        1 ZINC000096014538    0.1000
79     H79   -11.3100  -13.5871   -1.0321 H        1 ZINC000096014538    0.0800
80     H80   -11.4452  -13.7352    0.7366 H        1 ZINC000096014538    0.0800
81     H81   -11.2878  -16.3313   -0.3644 H        1 ZINC000096014538    0.4000
82     H82    -9.0001  -17.3611    0.6199 H        1 ZINC000096014538    0.1000
83     H83    -8.8650  -17.2130   -1.1488 H        1 ZINC000096014538    0.1100
84     H84    -6.8975  -15.7289   -0.8741 H        1 ZINC000096014538    0.0800
85     H85    -7.0327  -15.8770    0.8945 H        1 ZINC000096014538    0.0700
86     H86    -6.8754  -18.4731   -0.2065 H        1 ZINC000096014538    0.4000
87     H87    -5.7937  -20.0476   -0.5710 H        1 ZINC000096014538    0.3700
88     H88    -4.8390  -17.9229   -2.4277 H        1 ZINC000096014538    0.0400
89     H89    -3.7353  -18.9932   -3.3248 H        1 ZINC000096014538    0.0800
90     H90    -5.0874  -19.6852   -2.3967 H        1 ZINC000096014538    0.0500
91     H91    -1.8239  -17.8877   -0.2980 H        1 ZINC000096014538    0.0500
92     H92    -1.7150  -18.0503   -2.0671 H        1 ZINC000096014538    0.0800
93     H93    -2.8877  -16.9210   -1.3477 H        1 ZINC000096014538    0.0600
94     H94    -2.0988  -20.4326   -0.3069 H        1 ZINC000096014538    0.0500
95     H95    -3.4872  -21.1508   -1.1582 H        1 ZINC000096014538    0.0600
96     H96     3.7743  -21.8200   -5.6846 H        1 ZINC000096014538    0.0600
97     H97     2.8316  -22.5133   -7.0258 H        1 ZINC000096014538    0.1000
98     H98     5.5882  -18.6483   -4.6876 H        1 ZINC000096014538    0.2300
99     H99     8.1835  -14.6026   -4.1924 H        1 ZINC000096014538    0.4200
100    H100    8.5769  -13.2886   -5.1627 H        1 ZINC000096014538    0.4000
101    H101    6.5458  -14.0316   -9.1775 H        1 ZINC000096014538    0.2000
102    H102    6.1045  -18.2183   -9.5956 H        1 ZINC000096014538    0.3500
@<TRIPOS>BOND
1     1     2     1
2     1     64    1
3     1     65    1
4     1     66    1
5     2     3     1
6     2     67    1
7     2     68    1
8     3     4     1
9     3     69    1
10    3     70    1
11    4     5     1
12    4     71    1
13    4     72    1
14    5     6     1
15    5     73    1
16    5     74    1
17    6     7     2
18    6     8     1
19    8     9     1
20    8     75    1
21    8     76    1
22    9     10    2
23    9     11    1
24    11    12    1
25    12    13    1
26    12    77    1
27    12    78    1
28    13    14    1
29    13    79    1
30    13    80    1
31    14    15    am
32    14    81    1
33    15    16    2
34    15    17    1
35    17    18    1
36    17    82    1
37    17    83    1
38    18    19    1
39    18    84    1
40    18    85    1
41    19    20    am
42    19    86    1
43    20    21    2
44    20    22    1
45    22    23    1
46    22    24    1
47    22    25    1
48    24    87    1
49    25    26    1
50    25    27    1
51    25    28    1
52    26    88    1
53    26    89    1
54    26    90    1
55    27    91    1
56    27    92    1
57    27    93    1
58    28    29    1
59    28    94    1
60    28    95    1
61    29    30    1
62    30    31    ar
63    30    32    ar
64    30    33    1
65    33    34    1
66    34    35    ar
67    34    36    ar
68    34    37    1
69    37    38    1
70    38    39    1
71    38    96    1
72    38    97    1
73    39    40    1
74    39    57    1
75    39    41    1
76    41    42    1
77    42    43    1
78    42    44    1
79    42    54    1
80    44    53    1
81    44    45    1
82    45    46    2
83    45    98    1
84    46    47    1
85    47    53    ar
86    47    48    ar
87    48    49    1
88    48    50    ar
89    49    99    1
90    49    100   1
91    50    51    ar
92    51    52    ar
93    51    101   1
94    52    53    ar
95    54    55    1
96    54    56    1
97    54    57    1
98    56    102   1
99    57    58    1
100   57    59    1
101   59    60    1
102   60    61    ar
103   60    62    ar
104   60    63    ar
@<TRIPOS>SUBSTRUCTURE
1   ZINC000096014538 1     RESIDUE    1   A     ZIN   1

@<TRIPOS>MOLECULE
ZINC000096014538
102   104   1     0     0
SMALL
USER_CHARGES
@<TRIPOS>ATOM
1      C1    -13.8524   -3.1228  -15.2669 C.3      1 ZINC000096014538   -0.1500
2      C2    -13.1327   -4.4670  -15.3941 C.3      1 ZINC000096014538   -0.1300
3      C3    -13.1540   -5.1866  -14.0440 C.3      1 ZINC000096014538   -0.1200
4      C4    -12.4342   -6.5307  -14.1712 C.3      1 ZINC000096014538   -0.1200
5      C5    -12.4555   -7.2504  -12.8212 C.3      1 ZINC000096014538   -0.0900
6      C6    -11.7466   -8.5743  -12.9464 C.2      1 ZINC000096014538    0.2400
7      O7    -12.4158   -9.6584  -13.3888 O.3      1 ZINC000096014538   -0.4700
8      C8    -10.4476   -8.6747  -12.6172 C.2      1 ZINC000096014538   -0.3700
9      C9     -9.6925   -9.7967  -13.0443 C.2      1 ZINC000096014538    0.3900
10     O10   -10.1791  -10.5981  -13.8215 O.2      1 ZINC000096014538   -0.4800
11     S11    -8.0503  -10.0313  -12.4502 S.3      1 ZINC000096014538   -0.1600
12     C12    -7.6207  -11.5644  -13.3110 C.3      1 ZINC000096014538   -0.1100
13     C13    -6.1949  -11.9760  -12.9387 C.3      1 ZINC000096014538    0.1400
14     N14    -5.8471  -13.2169  -13.6354 N.am     1 ZINC000096014538   -0.7300
15     C15    -4.6314  -13.7712  -13.4584 C.2      1 ZINC000096014538    0.5200
16     O16    -3.8253  -13.2426  -12.7224 O.2      1 ZINC000096014538   -0.5300
17     C17    -4.2737  -15.0477  -14.1751 C.3      1 ZINC000096014538   -0.1600
18     C18    -2.8479  -15.4592  -13.8028 C.3      1 ZINC000096014538    0.1400
19     N19    -2.5002  -16.7001  -14.4995 N.am     1 ZINC000096014538   -0.7300
20     C20    -1.2845  -17.2544  -14.3225 C.2      1 ZINC000096014538    0.5100
21     O21    -0.4497  -16.6841  -13.6525 O.2      1 ZINC000096014538   -0.5300
22     C22    -0.9623  -18.5827  -14.9572 C.3      1 ZINC000096014538    0.1000
23     H23    -0.2784  -19.1364  -14.3139 H        1 ZINC000096014538    0.1400
24     O24    -2.1664  -19.3327  -15.1297 O.3      1 ZINC000096014538   -0.5400
25     C25    -0.3061  -18.3511  -16.3198 C.3      1 ZINC000096014538   -0.1000
26     C26    -1.2461  -17.5312  -17.2058 C.3      1 ZINC000096014538   -0.1500
27     C27     1.0083  -17.5912  -16.1302 C.3      1 ZINC000096014538   -0.1400
28     C28    -0.0242  -19.6994  -16.9858 C.3      1 ZINC000096014538    0.1500
29     O29     0.5888  -19.4830  -18.2585 O.3      1 ZINC000096014538   -0.7700
30     P30     1.0240  -20.6846  -19.2377 P.3      1 ZINC000096014538    2.2900
31     O31     1.9592  -21.6534  -18.4801 O.co2    1 ZINC000096014538   -1.1000
32     O32    -0.2347  -21.4467  -19.7087 O.co2    1 ZINC000096014538   -1.1100
33     O33     1.7963  -20.0825  -20.5156 O.3      1 ZINC000096014538   -1.0900
34     P34     2.7245  -20.7222  -21.6651 P.3      1 ZINC000096014538    2.2900
35     O35     3.6565  -21.7854  -21.0422 O.co2    1 ZINC000096014538   -1.1000
36     O36     1.8321  -21.3849  -22.7382 O.co2    1 ZINC000096014538   -1.1000
37     O37     3.6113  -19.5635  -22.3456 O.3      1 ZINC000096014538   -0.7700
38     C38     4.6131  -19.8269  -23.3300 C.3      1 ZINC000096014538    0.1400
39     C39     5.2613  -18.5104  -23.7629 C.3      1 ZINC000096014538    0.0700
40     H40     4.4999  -17.8041  -24.0937 H        1 ZINC000096014538    0.1000
41     O41     6.0310  -17.9482  -22.6778 O.3      1 ZINC000096014538   -0.3500
42     C42     6.9616  -17.0379  -23.3031 C.3      1 ZINC000096014538    0.2600
43     H43     6.4622  -16.1050  -23.5647 H        1 ZINC000096014538    0.1200
44     N44     8.0952  -16.7761  -22.4127 N.pl3    1 ZINC000096014538   -0.4500
45     C45     8.5356  -17.5856  -21.4082 C.2      1 ZINC000096014538    0.2900
46     N46     9.5632  -17.0455  -20.8200 N.2      1 ZINC000096014538   -0.4800
47     C47     9.8468  -15.8584  -21.4080 C.ar     1 ZINC000096014538   -0.1000
48     C48    10.8161  -14.8617  -21.2048 C.ar     1 ZINC000096014538    0.5000
49     N49    11.7663  -14.9910  -20.2071 N.pl3    1 ZINC000096014538   -0.8300
50     N50    10.7994  -13.7920  -21.9934 N.ar     1 ZINC000096014538   -0.6000
51     C51     9.8968  -13.6603  -22.9482 C.ar     1 ZINC000096014538    0.3400
52     N52     8.9702  -14.5677  -23.1747 N.ar     1 ZINC000096014538   -0.5400
53     C53     8.9120  -15.6741  -22.4409 C.ar     1 ZINC000096014538    0.2900
54     C54     7.4343  -17.7708  -24.5782 C.3      1 ZINC000096014538    0.0600
55     H55     8.3636  -18.3078  -24.3878 H        1 ZINC000096014538    0.0700
56     O56     7.6036  -16.8454  -25.6539 O.3      1 ZINC000096014538   -0.5000
57     C57     6.2878  -18.7614  -24.8897 C.3      1 ZINC000096014538    0.1500
58     H58     6.6501  -19.7887  -24.8526 H        1 ZINC000096014538    0.0800
59     O59     5.7161  -18.4793  -26.1686 O.3      1 ZINC000096014538   -0.7200
60     P60     5.6668  -19.5567  -27.3640 P.3      1 ZINC000096014538    2.1200
61     O61     7.1137  -20.0846  -27.6511 O.co2    1 ZINC000096014538   -1.1900
62     O62     4.7465  -20.7549  -26.9495 O.co2    1 ZINC000096014538   -1.1700
63     O63     5.0925  -18.8790  -28.6544 O.co2    1 ZINC000096014538   -1.1700
64     H64   -14.8850   -3.2911  -14.9611 H        1 ZINC000096014538    0.0500
65     H65   -13.3477   -2.5097  -14.5203 H        1 ZINC000096014538    0.0500
66     H66   -13.8373   -2.6102  -16.2287 H        1 ZINC000096014538    0.0500
67     H67   -13.6374   -5.0802  -16.1406 H        1 ZINC000096014538    0.0600
68     H68   -12.1001   -4.2987  -15.6999 H        1 ZINC000096014538    0.0600
69     H69   -12.6493   -4.5734  -13.2975 H        1 ZINC000096014538    0.0600
70     H70   -14.1866   -5.3549  -13.7382 H        1 ZINC000096014538    0.0600
71     H71   -12.9389   -7.1439  -14.9178 H        1 ZINC000096014538    0.0700
72     H72   -11.4016   -6.3625  -14.4770 H        1 ZINC000096014538    0.0700
73     H73   -11.9508   -6.6372  -12.0746 H        1 ZINC000096014538    0.1000
74     H74   -13.4881   -7.4186  -12.5154 H        1 ZINC000096014538    0.0900
75     H75   -12.1358  -10.5177  -13.0450 H        1 ZINC000096014538    0.4200
76     H76    -9.9786   -7.9009  -12.0275 H        1 ZINC000096014538    0.1500
77     H77    -8.3145  -12.3523  -13.0179 H        1 ZINC000096014538    0.1000
78     H78    -7.6840  -11.4067  -14.3876 H        1 ZINC000096014538    0.1000
79     H79    -5.5011  -11.1880  -13.2319 H        1 ZINC000096014538    0.0800
80     H80    -6.1316  -12.1337  -11.8621 H        1 ZINC000096014538    0.0800
81     H81    -6.4919  -13.6397  -14.2241 H        1 ZINC000096014538    0.4000
82     H82    -4.9675  -15.8356  -13.8819 H        1 ZINC000096014538    0.1000
83     H83    -4.3370  -14.8899  -15.2517 H        1 ZINC000096014538    0.1100
84     H84    -2.1541  -14.6713  -14.0959 H        1 ZINC000096014538    0.0800
85     H85    -2.7846  -15.6170  -12.7262 H        1 ZINC000096014538    0.0700
86     H86    -3.1449  -17.1229  -15.0881 H        1 ZINC000096014538    0.4000
87     H87    -2.8225  -18.8993  -15.6924 H        1 ZINC000096014538    0.3700
88     H88    -1.4469  -16.5707  -16.7313 H        1 ZINC000096014538    0.0500
89     H89    -0.7785  -17.3662  -18.1765 H        1 ZINC000096014538    0.0900
90     H90    -2.1824  -18.0726  -17.3408 H        1 ZINC000096014538    0.0500
91     H91     1.6364  -18.1241  -15.4164 H        1 ZINC000096014538    0.0600
92     H92     1.5266  -17.5177  -17.0863 H        1 ZINC000096014538    0.0800
93     H93     0.7982  -16.5903  -15.7530 H        1 ZINC000096014538    0.0500
94     H94     0.6455  -20.2835  -16.3546 H        1 ZINC000096014538    0.0500
95     H95    -0.9605  -20.2408  -17.1208 H        1 ZINC000096014538    0.0600
96     H96     5.3730  -20.4846  -22.9081 H        1 ZINC000096014538    0.0600
97     H97     4.1554  -20.3081  -24.1944 H        1 ZINC000096014538    0.1000
98     H98     8.0961  -18.5349  -21.1396 H        1 ZINC000096014538    0.2300
99     H99    11.7684  -15.7766  -19.6381 H        1 ZINC000096014538    0.4200
100    H100   12.4303  -14.2960  -20.0767 H        1 ZINC000096014538    0.4000
101    H101    9.9193  -12.7750  -23.5663 H        1 ZINC000096014538    0.2000
102    H102    8.2698  -16.1649  -25.4861 H        1 ZINC000096014538    0.3500
@<TRIPOS>BOND
1     1     2     1
2     1     64    1
3     1     65    1
4     1     66    1
5     2     3     1
6     2     67    1
7     2     68    1
8     3     4     1
9     3     69    1
10    3     70    1
11    4     5     1
12    4     71    1
13    4     72    1
14    5     6     1
15    5     73    1
16    5     74    1
17    6     7     1
18    6     8     2
19    7     75    1
20    8     9     1
21    8     76    1
22    9     10    2
23    9     11    1
24    11    12    1
25    12    13    1
26    12    77    1
27    12    78    1
28    13    14    1
29    13    79    1
30    13    80    1
31    14    15    am
32    14    81    1
33    15    16    2
34    15    17    1
35    17    18    1
36    17    82    1
37    17    83    1
38    18    19    1
39    18    84    1
40    18    85    1
41    19    20    am
42    19    86    1
43    20    21    2
44    20    22    1
45    22    23    1
46    22    24    1
47    22    25    1
48    24    87    1
49    25    26    1
50    25    27    1
51    25    28    1
52    26    88    1
53    26    89    1
54    26    90    1
55    27    91    1
56    27    92    1
57    27    93    1
58    28    29    1
59    28    94    1
60    28    95    1
61    29    30    1
62    30    31    ar
63    30    32    ar
64    30    33    1
65    33    34    1
66    34    35    ar
67    34    36    ar
68    34    37    1
69    37    38    1
70    38    39    1
71    38    96    1
72    38    97    1
73    39    40    1
74    39    57    1
75    39    41    1
76    41    42    1
77    42    43    1
78    42    44    1
79    42    54    1
80    44    53    1
81    44    45    1
82    45    46    2
83    45    98    1
84    46    47    1
85    47    53    ar
86    47    48    ar
87    48    49    1
88    48    50    ar
89    49    99    1
90    49    100   1
91    50    51    ar
92    51    52    ar
93    51    101   1
94    52    53    ar
95    54    55    1
96    54    56    1
97    54    57    1
98    56    102   1
99    57    58    1
100   57    59    1
101   59    60    1
102   60    61    ar
103   60    62    ar
104   60    63    ar
@<TRIPOS>SUBSTRUCTURE
1   ZINC000096014538 1     RESIDUE    1   A     ZIN   1
@<TRIPOS>MOLECULE
ZINC000096014542
96    98    1     0     0
SMALL
USER_CHARGES
@<TRIPOS>ATOM
1      C1      9.7268  -10.8252   18.2450 C.3      1 ZINC000096014542   -0.1500
2      C2      9.1051  -11.5509   17.0501 C.3      1 ZINC000096014542   -0.1200
3      C3      8.6732  -10.5261   15.9994 C.3      1 ZINC000096014542   -0.1700
4      C4      8.0608  -11.2410   14.8225 C.2      1 ZINC000096014542    0.3500
5      O5      7.9784  -12.4457   14.8240 O.2      1 ZINC000096014542   -0.4100
6      C6      7.5513  -10.4523   13.6437 C.3      1 ZINC000096014542   -0.2000
7      C7      6.9922  -11.3969   12.6112 C.2      1 ZINC000096014542    0.3200
8      O8      7.0061  -12.5933   12.8127 O.2      1 ZINC000096014542   -0.4100
9      S9      6.3375  -10.7820   11.1538 S.3      1 ZINC000096014542   -0.1200
10     C10     5.8472  -12.3289   10.3521 C.3      1 ZINC000096014542   -0.1200
11     C11     5.2178  -12.0212    8.9919 C.3      1 ZINC000096014542    0.1400
12     N12     4.8210  -13.2733    8.3430 N.am     1 ZINC000096014542   -0.7300
13     C13     4.2409  -13.2476    7.1267 C.2      1 ZINC000096014542    0.5200
14     O14     4.0474  -12.1879    6.5694 O.2      1 ZINC000096014542   -0.5300
15     C15     3.8327  -14.5356    6.4592 C.3      1 ZINC000096014542   -0.1500
16     C16     3.2033  -14.2279    5.0991 C.3      1 ZINC000096014542    0.1400
17     N17     2.8065  -15.4800    4.4502 N.am     1 ZINC000096014542   -0.7400
18     C18     2.2264  -15.4543    3.2339 C.2      1 ZINC000096014542    0.5000
19     O19     1.9499  -14.3929    2.7162 O.2      1 ZINC000096014542   -0.5200
20     C20     1.9213  -16.7444    2.5172 C.3      1 ZINC000096014542    0.1000
21     H21     2.3521  -16.7147    1.5164 H        1 ZINC000096014542    0.1400
22     O22     2.4831  -17.8382    3.2453 O.3      1 ZINC000096014542   -0.5500
23     C23     0.4054  -16.9248    2.4148 C.3      1 ZINC000096014542   -0.0900
24     C24    -0.2148  -16.8302    3.8102 C.3      1 ZINC000096014542   -0.1400
25     C25    -0.1794  -15.8290    1.5214 C.3      1 ZINC000096014542   -0.1400
26     C26     0.0946  -18.2955    1.8103 C.3      1 ZINC000096014542    0.1500
27     O27    -1.3212  -18.4640    1.7147 O.3      1 ZINC000096014542   -0.7700
28     P28    -2.0079  -19.7942    1.1221 P.3      1 ZINC000096014542    2.2900
29     O29    -1.4551  -20.0723   -0.2935 O.co2    1 ZINC000096014542   -1.1000
30     O30    -1.6896  -20.9925    2.0440 O.co2    1 ZINC000096014542   -1.1100
31     O31    -3.6025  -19.5858    1.0442 O.3      1 ZINC000096014542   -1.0900
32     P32    -4.7967  -20.3632    0.2948 P.3      1 ZINC000096014542    2.2900
33     O33    -4.3327  -20.7797   -1.1188 O.co2    1 ZINC000096014542   -1.1000
34     O34    -5.1783  -21.6231    1.1036 O.co2    1 ZINC000096014542   -1.1000
35     O35    -6.0766  -19.3938    0.1757 O.3      1 ZINC000096014542   -0.7700
36     C36    -7.2640  -19.7559   -0.5321 C.3      1 ZINC000096014542    0.1400
37     C37    -8.2767  -18.6121   -0.4479 C.3      1 ZINC000096014542    0.0700
38     H38    -8.4550  -18.3399    0.5923 H        1 ZINC000096014542    0.1000
39     O39    -7.8062  -17.4681   -1.1935 O.3      1 ZINC000096014542   -0.3500
40     C40    -8.9855  -16.6803   -1.4661 C.3      1 ZINC000096014542    0.2600
41     H41    -9.2744  -16.1113   -0.5824 H        1 ZINC000096014542    0.1200
42     N42    -8.7469  -15.7791   -2.5961 N.pl3    1 ZINC000096014542   -0.4500
43     C43    -7.8236  -15.9514   -3.5842 C.2      1 ZINC000096014542    0.2900
44     N44    -7.8833  -14.9608   -4.4261 N.2      1 ZINC000096014542   -0.4800
45     C45    -8.8459  -14.0923   -4.0331 C.ar     1 ZINC000096014542   -0.1000
46     C46    -9.3458  -12.8784   -4.5338 C.ar     1 ZINC000096014542    0.5000
47     N47    -8.8285  -12.3231   -5.6910 N.pl3    1 ZINC000096014542   -0.8300
48     N48   -10.3273  -12.2760   -3.8704 N.ar     1 ZINC000096014542   -0.6000
49     C49   -10.8274  -12.7986   -2.7656 C.ar     1 ZINC000096014542    0.3400
50     N50   -10.3904  -13.9327   -2.2597 N.ar     1 ZINC000096014542   -0.5400
51     C51    -9.4156  -14.6099   -2.8574 C.ar     1 ZINC000096014542    0.2900
52     C52   -10.0774  -17.7140   -1.8207 C.3      1 ZINC000096014542    0.0600
53     H53   -10.1372  -17.8511   -2.9004 H        1 ZINC000096014542    0.0700
54     O54   -11.3429  -17.3048   -1.2984 O.3      1 ZINC000096014542   -0.5000
55     C55    -9.6013  -19.0152   -1.1330 C.3      1 ZINC000096014542    0.1500
56     H56    -9.4249  -19.7958   -1.8729 H        1 ZINC000096014542    0.0800
57     O57   -10.5599  -19.4504   -0.1667 O.3      1 ZINC000096014542   -0.7200
58     P58   -11.2728  -20.8927   -0.2267 P.3      1 ZINC000096014542    2.1200
59     O59   -11.9604  -21.0777   -1.6222 O.co2    1 ZINC000096014542   -1.1900
60     O60   -10.1992  -22.0149   -0.0206 O.co2    1 ZINC000096014542   -1.1700
61     O61   -12.3526  -20.9890    0.9043 O.co2    1 ZINC000096014542   -1.1700
62     H62     8.9931  -10.1463   18.6797 H        1 ZINC000096014542    0.0500
63     H63    10.0345  -11.5552   18.9936 H        1 ZINC000096014542    0.0600
64     H64    10.5957  -10.2569   17.9130 H        1 ZINC000096014542    0.0500
65     H65     9.8388  -12.2298   16.6155 H        1 ZINC000096014542    0.0700
66     H66     8.2362  -12.1192   17.3821 H        1 ZINC000096014542    0.0700
67     H67     7.9394   -9.8473   16.4340 H        1 ZINC000096014542    0.1000
68     H68     9.5420   -9.9578   15.6674 H        1 ZINC000096014542    0.1000
69     H69     6.7680   -9.7702   13.9741 H        1 ZINC000096014542    0.1400
70     H70     8.3706   -9.8808   13.2075 H        1 ZINC000096014542    0.1400
71     H71     6.7251  -12.9596   10.2118 H        1 ZINC000096014542    0.1000
72     H72     5.1225  -12.8490   10.9785 H        1 ZINC000096014542    0.1000
73     H73     4.3399  -11.3906    9.1321 H        1 ZINC000096014542    0.0800
74     H74     5.9425  -11.5011    8.3655 H        1 ZINC000096014542    0.0800
75     H75     4.9757  -14.1208    8.7887 H        1 ZINC000096014542    0.4000
76     H76     4.7106  -15.1663    6.3190 H        1 ZINC000096014542    0.1000
77     H77     3.1080  -15.0557    7.0856 H        1 ZINC000096014542    0.1100
78     H78     2.3254  -13.5973    5.2393 H        1 ZINC000096014542    0.0800
79     H79     3.9280  -13.7078    4.4726 H        1 ZINC000096014542    0.0700
80     H80     2.9612  -16.3275    4.8959 H        1 ZINC000096014542    0.4000
81     H81     2.1446  -17.9257    4.1469 H        1 ZINC000096014542    0.3700
82     H82     0.0066  -15.8537    4.2409 H        1 ZINC000096014542    0.0400
83     H83    -1.2948  -16.9587    3.7373 H        1 ZINC000096014542    0.0800
84     H84     0.2018  -17.6109    4.4467 H        1 ZINC000096014542    0.0500
85     H85     0.3430  -15.8228    0.5647 H        1 ZINC000096014542    0.0500
86     H86    -1.2391  -16.0225    1.3555 H        1 ZINC000096014542    0.0800
87     H87    -0.0586  -14.8609    2.0075 H        1 ZINC000096014542    0.0600
88     H88     0.5365  -18.3629    0.8162 H        1 ZINC000096014542    0.0500
89     H89     0.5112  -19.0762    2.4468 H        1 ZINC000096014542    0.0600
90     H90    -7.0197  -19.9488   -1.5767 H        1 ZINC000096014542    0.0600
91     H91    -7.6925  -20.6540   -0.0873 H        1 ZINC000096014542    0.1000
92     H92    -7.1426  -16.7864   -3.6572 H        1 ZINC000096014542    0.2300
93     H93    -8.1123  -12.7725   -6.1665 H        1 ZINC000096014542    0.4200
94     H94    -9.1820  -11.4845   -6.0267 H        1 ZINC000096014542    0.4000
95     H95   -11.6245  -12.2759   -2.2579 H        1 ZINC000096014542    0.2000
96     H96   -11.6608  -16.4628   -1.6520 H        1 ZINC000096014542    0.3500
@<TRIPOS>BOND
1     1     2     1
2     1     62    1
3     1     63    1
4     1     64    1
5     2     3     1
6     2     65    1
7     2     66    1
8     3     4     1
9     3     67    1
10    3     68    1
11    4     5     2
12    4     6     1
13    6     7     1
14    6     69    1
15    6     70    1
16    7     8     2
17    7     9     1
18    9     10    1
19    10    11    1
20    10    71    1
21    10    72    1
22    11    12    1
23    11    73    1
24    11    74    1
25    12    13    am
26    12    75    1
27    13    14    2
28    13    15    1
29    15    16    1
30    15    76    1
31    15    77    1
32    16    17    1
33    16    78    1
34    16    79    1
35    17    18    am
36    17    80    1
37    18    19    2
38    18    20    1
39    20    21    1
40    20    22    1
41    20    23    1
42    22    81    1
43    23    24    1
44    23    25    1
45    23    26    1
46    24    82    1
47    24    83    1
48    24    84    1
49    25    85    1
50    25    86    1
51    25    87    1
52    26    27    1
53    26    88    1
54    26    89    1
55    27    28    1
56    28    29    ar
57    28    30    ar
58    28    31    1
59    31    32    1
60    32    33    ar
61    32    34    ar
62    32    35    1
63    35    36    1
64    36    37    1
65    36    90    1
66    36    91    1
67    37    38    1
68    37    55    1
69    37    39    1
70    39    40    1
71    40    41    1
72    40    42    1
73    40    52    1
74    42    51    1
75    42    43    1
76    43    44    2
77    43    92    1
78    44    45    1
79    45    51    ar
80    45    46    ar
81    46    47    1
82    46    48    ar
83    47    93    1
84    47    94    1
85    48    49    ar
86    49    50    ar
87    49    95    1
88    50    51    ar
89    52    53    1
90    52    54    1
91    52    55    1
92    54    96    1
93    55    56    1
94    55    57    1
95    57    58    1
96    58    59    ar
97    58    60    ar
98    58    61    ar
@<TRIPOS>SUBSTRUCTURE
1   ZINC000096014542 1     RESIDUE    1   A     ZIN   1

@<TRIPOS>MOLECULE
ZINC000096014542
96    98    1     0     0
SMALL
USER_CHARGES
@<TRIPOS>ATOM
1      C1    -13.8909   -3.1634  -12.7768 C.3      1 ZINC000096014542   -0.1500
2      C2    -13.1711   -4.5075  -12.9040 C.3      1 ZINC000096014542   -0.1200
3      C3    -13.1924   -5.2271  -11.5539 C.3      1 ZINC000096014542   -0.0900
4      C4    -12.4835   -6.5510  -11.6792 C.2      1 ZINC000096014542    0.2400
5      O5    -13.1527   -7.6351  -12.1216 O.3      1 ZINC000096014542   -0.4700
6      C6    -11.1845   -6.6514  -11.3500 C.2      1 ZINC000096014542   -0.3700
7      C7    -10.4294   -7.7735  -11.7771 C.2      1 ZINC000096014542    0.3900
8      O8    -10.9160   -8.5748  -12.5543 O.2      1 ZINC000096014542   -0.4800
9      S9     -8.7872   -8.0080  -11.1830 S.3      1 ZINC000096014542   -0.1600
10     C10    -8.3576   -9.5412  -12.0438 C.3      1 ZINC000096014542   -0.1100
11     C11    -6.9318   -9.9527  -11.6715 C.3      1 ZINC000096014542    0.1400
12     N12    -6.5840  -11.1937  -12.3682 N.am     1 ZINC000096014542   -0.7300
13     C13    -5.3683  -11.7479  -12.1912 C.2      1 ZINC000096014542    0.5200
14     O14    -4.5622  -11.2193  -11.4552 O.2      1 ZINC000096014542   -0.5300
15     C15    -5.0106  -13.0244  -12.9078 C.3      1 ZINC000096014542   -0.1600
16     C16    -3.5848  -13.4359  -12.5356 C.3      1 ZINC000096014542    0.1400
17     N17    -3.2371  -14.6769  -13.2323 N.am     1 ZINC000096014542   -0.7300
18     C18    -2.0213  -15.2311  -13.0553 C.2      1 ZINC000096014542    0.5100
19     O19    -1.1866  -14.6609  -12.3852 O.2      1 ZINC000096014542   -0.5300
20     C20    -1.6992  -16.5595  -13.6900 C.3      1 ZINC000096014542    0.1000
21     H21    -1.0153  -17.1131  -13.0467 H        1 ZINC000096014542    0.1400
22     O22    -2.9033  -17.3095  -13.8625 O.3      1 ZINC000096014542   -0.5400
23     C23    -1.0429  -16.3279  -15.0525 C.3      1 ZINC000096014542   -0.1000
24     C24    -1.9829  -15.5079  -15.9386 C.3      1 ZINC000096014542   -0.1500
25     C25     0.2714  -15.5679  -14.8630 C.3      1 ZINC000096014542   -0.1400
26     C26    -0.7611  -17.6761  -15.7186 C.3      1 ZINC000096014542    0.1500
27     O27    -0.1481  -17.4598  -16.9912 O.3      1 ZINC000096014542   -0.7700
28     P28     0.2871  -18.6614  -17.9705 P.3      1 ZINC000096014542    2.2900
29     O29     1.2223  -19.6301  -17.2129 O.co2    1 ZINC000096014542   -1.1000
30     O30    -0.9716  -19.4235  -18.4415 O.co2    1 ZINC000096014542   -1.1100
31     O31     1.0594  -18.0592  -19.2484 O.3      1 ZINC000096014542   -1.0900
32     P32     1.9876  -18.6990  -20.3979 P.3      1 ZINC000096014542    2.2900
33     O33     2.9196  -19.7621  -19.7750 O.co2    1 ZINC000096014542   -1.1000
34     O34     1.0952  -19.3617  -21.4710 O.co2    1 ZINC000096014542   -1.1000
35     O35     2.8744  -17.5403  -21.0783 O.3      1 ZINC000096014542   -0.7700
36     C36     3.8762  -17.8037  -22.0628 C.3      1 ZINC000096014542    0.1400
37     C37     4.5244  -16.4871  -22.4957 C.3      1 ZINC000096014542    0.0700
38     H38     3.7630  -15.7808  -22.8265 H        1 ZINC000096014542    0.1000
39     O39     5.2941  -15.9250  -21.4106 O.3      1 ZINC000096014542   -0.3500
40     C40     6.2248  -15.0146  -22.0359 C.3      1 ZINC000096014542    0.2600
41     H41     5.7254  -14.0818  -22.2975 H        1 ZINC000096014542    0.1200
42     N42     7.3583  -14.7529  -21.1455 N.pl3    1 ZINC000096014542   -0.4500
43     C43     7.7987  -15.5624  -20.1409 C.2      1 ZINC000096014542    0.2900
44     N44     8.8263  -15.0222  -19.5528 N.2      1 ZINC000096014542   -0.4800
45     C45     9.1099  -13.8352  -20.1408 C.ar     1 ZINC000096014542   -0.1000
46     C46    10.0792  -12.8384  -19.9376 C.ar     1 ZINC000096014542    0.5000
47     N47    11.0294  -12.9677  -18.9398 N.pl3    1 ZINC000096014542   -0.8300
48     N48    10.0625  -11.7687  -20.7262 N.ar     1 ZINC000096014542   -0.6000
49     C49     9.1599  -11.6371  -21.6810 C.ar     1 ZINC000096014542    0.3400
50     N50     8.2333  -12.5444  -21.9075 N.ar     1 ZINC000096014542   -0.5400
51     C51     8.1751  -13.6508  -21.1737 C.ar     1 ZINC000096014542    0.2900
52     C52     6.6974  -15.7475  -23.3110 C.3      1 ZINC000096014542    0.0600
53     H53     7.6267  -16.2845  -23.1206 H        1 ZINC000096014542    0.0700
54     O54     6.8667  -14.8222  -24.3867 O.3      1 ZINC000096014542   -0.5000
55     C55     5.5509  -16.7381  -23.6225 C.3      1 ZINC000096014542    0.1500
56     H56     5.9132  -17.7655  -23.5853 H        1 ZINC000096014542    0.0800
57     O57     4.9792  -16.4561  -24.9014 O.3      1 ZINC000096014542   -0.7200
58     P58     4.9299  -17.5334  -26.0967 P.3      1 ZINC000096014542    2.1200
59     O59     6.3768  -18.0613  -26.3839 O.co2    1 ZINC000096014542   -1.1900
60     O60     4.0096  -18.7316  -25.6823 O.co2    1 ZINC000096014542   -1.1700
61     O61     4.3556  -16.8558  -27.3872 O.co2    1 ZINC000096014542   -1.1700
62     H62   -14.9235   -3.3316  -12.4710 H        1 ZINC000096014542    0.0600
63     H63   -13.3862   -2.5502  -12.0302 H        1 ZINC000096014542    0.0600
64     H64   -13.8757   -2.6507  -13.7386 H        1 ZINC000096014542    0.0600
65     H65   -13.6758   -5.1207  -13.6505 H        1 ZINC000096014542    0.0700
66     H66   -12.1385   -4.3392  -13.2098 H        1 ZINC000096014542    0.0700
67     H67   -12.6877   -4.6139  -10.8074 H        1 ZINC000096014542    0.1000
68     H68   -14.2250   -5.3954  -11.2481 H        1 ZINC000096014542    0.0900
69     H69   -12.8727   -8.4945  -11.7778 H        1 ZINC000096014542    0.4200
70     H70   -10.7155   -5.8777  -10.7603 H        1 ZINC000096014542    0.1500
71     H71    -9.0514  -10.3291  -11.7506 H        1 ZINC000096014542    0.1000
72     H72    -8.4208   -9.3834  -13.1204 H        1 ZINC000096014542    0.1000
73     H73    -6.2380   -9.1648  -11.9646 H        1 ZINC000096014542    0.0800
74     H74    -6.8685  -10.1105  -10.5948 H        1 ZINC000096014542    0.0800
75     H75    -7.2287  -11.6164  -12.9568 H        1 ZINC000096014542    0.4000
76     H76    -5.7044  -13.8123  -12.6147 H        1 ZINC000096014542    0.1000
77     H77    -5.0739  -12.8666  -13.9845 H        1 ZINC000096014542    0.1100
78     H78    -2.8910  -12.6480  -12.8287 H        1 ZINC000096014542    0.0800
79     H79    -3.5215  -13.5937  -11.4589 H        1 ZINC000096014542    0.0700
80     H80    -3.8818  -15.0996  -13.8209 H        1 ZINC000096014542    0.4000
81     H81    -3.5594  -16.8760  -14.4252 H        1 ZINC000096014542    0.3700
82     H82    -2.1838  -14.5474  -15.4640 H        1 ZINC000096014542    0.0500
83     H83    -1.5154  -15.3429  -16.9093 H        1 ZINC000096014542    0.0900
84     H84    -2.9193  -16.0493  -16.0736 H        1 ZINC000096014542    0.0500
85     H85     0.8995  -16.1008  -14.1492 H        1 ZINC000096014542    0.0600
86     H86     0.7897  -15.4945  -15.8191 H        1 ZINC000096014542    0.0800
87     H87     0.0613  -14.5671  -14.4858 H        1 ZINC000096014542    0.0500
88     H88    -0.0914  -18.2602  -15.0874 H        1 ZINC000096014542    0.0500
89     H89    -1.6974  -18.2175  -15.8536 H        1 ZINC000096014542    0.0600
90     H90     4.6361  -18.4614  -21.6409 H        1 ZINC000096014542    0.0600
91     H91     3.4185  -18.2848  -22.9272 H        1 ZINC000096014542    0.1000
92     H92     7.3592  -16.5116  -19.8724 H        1 ZINC000096014542    0.2300
93     H93    11.0315  -13.7533  -18.3709 H        1 ZINC000096014542    0.4200
94     H94    11.6934  -12.2727  -18.8094 H        1 ZINC000096014542    0.4000
95     H95     9.1824  -10.7517  -22.2991 H        1 ZINC000096014542    0.2000
96     H96     7.5329  -14.1416  -24.2189 H        1 ZINC000096014542    0.3500
@<TRIPOS>BOND
1     1     2     1
2     1     62    1
3     1     63    1
4     1     64    1
5     2     3     1
6     2     65    1
7     2     66    1
8     3     4     1
9     3     67    1
10    3     68    1
11    4     5     1
12    4     6     2
13    5     69    1
14    6     7     1
15    6     70    1
16    7     8     2
17    7     9     1
18    9     10    1
19    10    11    1
20    10    71    1
21    10    72    1
22    11    12    1
23    11    73    1
24    11    74    1
25    12    13    am
26    12    75    1
27    13    14    2
28    13    15    1
29    15    16    1
30    15    76    1
31    15    77    1
32    16    17    1
33    16    78    1
34    16    79    1
35    17    18    am
36    17    80    1
37    18    19    2
38    18    20    1
39    20    21    1
40    20    22    1
41    20    23    1
42    22    81    1
43    23    24    1
44    23    25    1
45    23    26    1
46    24    82    1
47    24    83    1
48    24    84    1
49    25    85    1
50    25    86    1
51    25    87    1
52    26    27    1
53    26    88    1
54    26    89    1
55    27    28    1
56    28    29    ar
57    28    30    ar
58    28    31    1
59    31    32    1
60    32    33    ar
61    32    34    ar
62    32    35    1
63    35    36    1
64    36    37    1
65    36    90    1
66    36    91    1
67    37    38    1
68    37    55    1
69    37    39    1
70    39    40    1
71    40    41    1
72    40    42    1
73    40    52    1
74    42    51    1
75    42    43    1
76    43    44    2
77    43    92    1
78    44    45    1
79    45    51    ar
80    45    46    ar
81    46    47    1
82    46    48    ar
83    47    93    1
84    47    94    1
85    48    49    ar
86    49    50    ar
87    49    95    1
88    50    51    ar
89    52    53    1
90    52    54    1
91    52    55    1
92    54    96    1
93    55    56    1
94    55    57    1
95    57    58    1
96    58    59    ar
97    58    60    ar
98    58    61    ar
@<TRIPOS>SUBSTRUCTURE
1   ZINC000096014542 1     RESIDUE    1   A     ZIN   1
@<TRIPOS>MOLECULE
ZINC000096014548
101   103   1     0     0
SMALL
USER_CHARGES
@<TRIPOS>ATOM
1      C1     22.4155   -6.6697    7.4615 C.3      1 ZINC000096014548   -0.1500
2      C2     21.4382   -7.8415    7.3476 C.3      1 ZINC000096014548   -0.1300
3      C3     20.7016   -7.7629    6.0089 C.3      1 ZINC000096014548   -0.1200
4      C4     19.7244   -8.9346    5.8950 C.3      1 ZINC000096014548   -0.1200
5      C5     18.9877   -8.8561    4.5563 C.3      1 ZINC000096014548   -0.1000
6      C6     18.0252  -10.0102    4.4442 C.2      1 ZINC000096014548   -0.0500
7      C7     16.7380   -9.7812    4.2008 C.2      1 ZINC000096014548   -0.2200
8      C8     15.7985  -10.9077    4.0913 C.2      1 ZINC000096014548    0.3800
9      O9     16.1990  -12.0489    4.2234 O.2      1 ZINC000096014548   -0.4500
10     S10    14.0930  -10.6043    3.7688 S.3      1 ZINC000096014548   -0.1400
11     C11    13.4702  -12.3036    3.7464 C.3      1 ZINC000096014548   -0.1100
12     C12    11.9645  -12.2915    3.4751 C.3      1 ZINC000096014548    0.1400
13     N13    11.4604  -13.6669    3.4570 N.am     1 ZINC000096014548   -0.7300
14     C14    10.1522  -13.9023    3.2343 C.2      1 ZINC000096014548    0.5200
15     O15     9.3923  -12.9754    3.0489 O.2      1 ZINC000096014548   -0.5300
16     C16     9.6337  -15.3171    3.2157 C.3      1 ZINC000096014548   -0.1500
17     C17     8.1280  -15.3050    2.9444 C.3      1 ZINC000096014548    0.1400
18     N18     7.6239  -16.6804    2.9263 N.am     1 ZINC000096014548   -0.7400
19     C19     6.3157  -16.9158    2.7036 C.2      1 ZINC000096014548    0.5000
20     O20     5.5402  -15.9881    2.6088 O.2      1 ZINC000096014548   -0.5200
21     C21     5.8165  -18.3316    2.5724 C.3      1 ZINC000096014548    0.1000
22     H22     5.2526  -18.4336    1.6452 H        1 ZINC000096014548    0.1400
23     O23     6.9284  -19.2290    2.5549 O.3      1 ZINC000096014548   -0.5500
24     C24     4.9106  -18.6651    3.7595 C.3      1 ZINC000096014548   -0.0900
25     C25     5.6595  -18.3913    5.0652 C.3      1 ZINC000096014548   -0.1400
26     C26     3.6528  -17.7960    3.7011 C.3      1 ZINC000096014548   -0.1400
27     C27     4.5137  -20.1415    3.6991 C.3      1 ZINC000096014548    0.1500
28     O28     3.6676  -20.4529    4.8078 O.3      1 ZINC000096014548   -0.7700
29     P29     3.0595  -21.9220    5.0613 P.3      1 ZINC000096014548    2.2900
30     O30     2.2915  -22.3855    3.8034 O.co2    1 ZINC000096014548   -1.1000
31     O31     4.2089  -22.9112    5.3566 O.co2    1 ZINC000096014548   -1.1100
32     O32     2.0539  -21.8771    6.3178 O.3      1 ZINC000096014548   -1.0900
33     P33     0.9265  -22.8771    6.8843 P.3      1 ZINC000096014548    2.2900
34     O34     0.1363  -23.4842    5.7035 O.co2    1 ZINC000096014548   -1.1000
35     O35     1.6007  -24.0102    7.6896 O.co2    1 ZINC000096014548   -1.1000
36     O36    -0.0802  -22.0638    7.8419 O.3      1 ZINC000096014548   -0.7700
37     C37    -1.2503  -22.6486    8.4171 C.3      1 ZINC000096014548    0.1400
38     C38    -1.9763  -21.6050    9.2684 C.3      1 ZINC000096014548    0.0700
39     H39    -1.2959  -21.1769   10.0045 H        1 ZINC000096014548    0.1000
40     O40    -2.5272  -20.5666    8.4293 O.3      1 ZINC000096014548   -0.3500
41     C41    -3.5651  -19.9484    9.2209 C.3      1 ZINC000096014548    0.2600
42     H42    -3.1298  -19.2660    9.9509 H        1 ZINC000096014548    0.1200
43     N43    -4.5088  -19.2350    8.3568 N.pl3    1 ZINC000096014548   -0.4500
44     C44    -4.7447  -19.4878    7.0381 C.2      1 ZINC000096014548    0.2900
45     N45    -5.6437  -18.6650    6.5816 N.2      1 ZINC000096014548   -0.4800
46     C46    -6.0408  -17.8343    7.5753 C.ar     1 ZINC000096014548   -0.1000
47     C47    -6.9586  -16.7745    7.6697 C.ar     1 ZINC000096014548    0.5000
48     N48    -7.6998  -16.3797    6.5698 N.pl3    1 ZINC000096014548   -0.8300
49     N49    -7.0986  -16.1604    8.8401 N.ar     1 ZINC000096014548   -0.6000
50     C50    -6.3959  -16.5307    9.8949 C.ar     1 ZINC000096014548    0.3400
51     N51    -5.5250  -17.5170    9.8532 N.ar     1 ZINC000096014548   -0.5400
52     C52    -5.3217  -18.1939    8.7278 C.ar     1 ZINC000096014548    0.2900
53     C53    -4.2689  -21.1231    9.9356 C.3      1 ZINC000096014548    0.0600
54     H54    -5.1418  -21.4472    9.3689 H        1 ZINC000096014548    0.0700
55     O55    -4.6457  -20.7487   11.2622 O.3      1 ZINC000096014548   -0.5000
56     C56    -3.1980  -22.2388    9.9700 C.3      1 ZINC000096014548    0.1500
57     H57    -3.5411  -23.1146    9.4193 H        1 ZINC000096014548    0.0800
58     O58    -2.8828  -22.5889   11.3191 O.3      1 ZINC000096014548   -0.7200
59     P59    -3.0574  -24.0795   11.9019 P.3      1 ZINC000096014548    2.1200
60     O60    -4.5296  -24.5621   11.6693 O.co2    1 ZINC000096014548   -1.1900
61     O61    -2.0684  -25.0468   11.1665 O.co2    1 ZINC000096014548   -1.1700
62     O62    -2.7439  -24.0802   13.4368 O.co2    1 ZINC000096014548   -1.1700
63     H63    21.8651   -5.7307    7.4042 H        1 ZINC000096014548    0.0500
64     H64    22.9403   -6.7257    8.4152 H        1 ZINC000096014548    0.0500
65     H65    23.1373   -6.7181    6.6462 H        1 ZINC000096014548    0.0500
66     H66    21.9887   -8.7805    7.4049 H        1 ZINC000096014548    0.0600
67     H67    20.7164   -7.7931    8.1629 H        1 ZINC000096014548    0.0600
68     H68    20.1512   -6.8238    5.9516 H        1 ZINC000096014548    0.0600
69     H69    21.4235   -7.8113    5.1936 H        1 ZINC000096014548    0.0600
70     H70    20.2748   -9.8737    5.9523 H        1 ZINC000096014548    0.0700
71     H71    19.0025   -8.8862    6.7103 H        1 ZINC000096014548    0.0700
72     H72    18.4373   -7.9170    4.4990 H        1 ZINC000096014548    0.0800
73     H73    19.7096   -8.9044    3.7410 H        1 ZINC000096014548    0.0900
74     H74    18.3807  -11.0232    4.5614 H        1 ZINC000096014548    0.1300
75     H75    16.3825   -8.7682    4.0835 H        1 ZINC000096014548    0.1400
76     H76    13.9763  -12.8658    2.9615 H        1 ZINC000096014548    0.1000
77     H77    13.6618  -12.7736    4.7111 H        1 ZINC000096014548    0.1000
78     H78    11.4585  -11.7293    4.2600 H        1 ZINC000096014548    0.0800
79     H79    11.7729  -11.8215    2.5105 H        1 ZINC000096014548    0.0800
80     H80    12.0682  -14.4082    3.6053 H        1 ZINC000096014548    0.4000
81     H81    10.1397  -15.8793    2.4308 H        1 ZINC000096014548    0.1000
82     H82     9.8253  -15.7870    4.1804 H        1 ZINC000096014548    0.1100
83     H83     7.6219  -14.7428    3.7293 H        1 ZINC000096014548    0.0800
84     H84     7.9364  -14.8350    1.9798 H        1 ZINC000096014548    0.0700
85     H85     8.2317  -17.4217    3.0746 H        1 ZINC000096014548    0.4000
86     H86     7.4761  -19.1922    3.3510 H        1 ZINC000096014548    0.3700
87     H87     5.9423  -17.3395    5.1082 H        1 ZINC000096014548    0.0400
88     H88     5.0142  -18.6289    5.9109 H        1 ZINC000096014548    0.0800
89     H89     6.5556  -19.0105    5.1068 H        1 ZINC000096014548    0.0500
90     H90     3.1807  -17.9052    2.7247 H        1 ZINC000096014548    0.0500
91     H91     2.9568  -18.1114    4.4784 H        1 ZINC000096014548    0.0800
92     H92     3.9247  -16.7523    3.8585 H        1 ZINC000096014548    0.0600
93     H93     3.9801  -20.3365    2.7689 H        1 ZINC000096014548    0.0500
94     H94     5.4098  -20.7606    3.7407 H        1 ZINC000096014548    0.0600
95     H95    -1.9121  -22.9936    7.6227 H        1 ZINC000096014548    0.0600
96     H96    -0.9639  -23.4932    9.0438 H        1 ZINC000096014548    0.1000
97     H97    -4.2570  -20.2571    6.4578 H        1 ZINC000096014548    0.2300
98     H98    -7.5889  -16.8360    5.7210 H        1 ZINC000096014548    0.4200
99     H99    -8.3303  -15.6466    6.6476 H        1 ZINC000096014548    0.4000
100    H100   -6.5409  -16.0044   10.8268 H        1 ZINC000096014548    0.2000
101    H101   -5.2710  -20.0120   11.3004 H        1 ZINC000096014548    0.3500
@<TRIPOS>BOND
1     1     2     1
2     1     63    1
3     1     64    1
4     1     65    1
5     2     3     1
6     2     66    1
7     2     67    1
8     3     4     1
9     3     68    1
10    3     69    1
11    4     5     1
12    4     70    1
13    4     71    1
14    5     6     1
15    5     72    1
16    5     73    1
17    6     7     2
18    6     74    1
19    7     8     1
20    7     75    1
21    8     9     2
22    8     10    1
23    10    11    1
24    11    12    1
25    11    76    1
26    11    77    1
27    12    13    1
28    12    78    1
29    12    79    1
30    13    14    am
31    13    80    1
32    14    15    2
33    14    16    1
34    16    17    1
35    16    81    1
36    16    82    1
37    17    18    1
38    17    83    1
39    17    84    1
40    18    19    am
41    18    85    1
42    19    20    2
43    19    21    1
44    21    22    1
45    21    23    1
46    21    24    1
47    23    86    1
48    24    25    1
49    24    26    1
50    24    27    1
51    25    87    1
52    25    88    1
53    25    89    1
54    26    90    1
55    26    91    1
56    26    92    1
57    27    28    1
58    27    93    1
59    27    94    1
60    28    29    1
61    29    30    ar
62    29    31    ar
63    29    32    1
64    32    33    1
65    33    34    ar
66    33    35    ar
67    33    36    1
68    36    37    1
69    37    38    1
70    37    95    1
71    37    96    1
72    38    39    1
73    38    56    1
74    38    40    1
75    40    41    1
76    41    42    1
77    41    43    1
78    41    53    1
79    43    52    1
80    43    44    1
81    44    45    2
82    44    97    1
83    45    46    1
84    46    52    ar
85    46    47    ar
86    47    48    1
87    47    49    ar
88    48    98    1
89    48    99    1
90    49    50    ar
91    50    51    ar
92    50    100   1
93    51    52    ar
94    53    54    1
95    53    55    1
96    53    56    1
97    55    101   1
98    56    57    1
99    56    58    1
100   58    59    1
101   59    60    ar
102   59    61    ar
103   59    62    ar
@<TRIPOS>SUBSTRUCTURE
1   ZINC000096014548 1     RESIDUE    1   A     ZIN   1
@<TRIPOS>MOLECULE
ZINC000096014559
95    97    1     0     0
SMALL
USER_CHARGES
@<TRIPOS>ATOM
1      C1      9.5402   -4.9268  -15.1940 C.3      1 ZINC000096014559   -0.1800
2      C2      9.0389   -6.0973  -14.3458 C.3      1 ZINC000096014559    0.1400
3      C3      8.1976   -7.0337  -15.2154 C.3      1 ZINC000096014559   -0.1500
4      O4     10.1558   -6.8144  -13.8161 O.3      1 ZINC000096014559   -0.5500
5      C5      8.1833   -5.5637  -13.1952 C.3      1 ZINC000096014559   -0.1700
6      C6      7.6895   -6.7167  -12.3597 C.2      1 ZINC000096014559    0.3300
7      O7      7.9923   -7.8537  -12.6556 O.2      1 ZINC000096014559   -0.4200
8      S8      6.7013   -6.4221  -10.9931 S.3      1 ZINC000096014559   -0.1300
9      C9      6.4395   -8.1198  -10.4227 C.3      1 ZINC000096014559   -0.1100
10     C10     5.5571   -8.1075   -9.1729 C.3      1 ZINC000096014559    0.1400
11     N11     5.3452   -9.4816   -8.7112 N.am     1 ZINC000096014559   -0.7300
12     C12     4.5934   -9.7167   -7.6176 C.2      1 ZINC000096014559    0.5200
13     O13     4.0922   -8.7906   -7.0157 O.2      1 ZINC000096014559   -0.5300
14     C14     4.3754  -11.1302   -7.1426 C.3      1 ZINC000096014559   -0.1500
15     C15     3.4930  -11.1179   -5.8928 C.3      1 ZINC000096014559    0.1400
16     N16     3.2811  -12.4920   -5.4311 N.am     1 ZINC000096014559   -0.7400
17     C17     2.5293  -12.7271   -4.3375 C.2      1 ZINC000096014559    0.5000
18     O18     2.1037  -11.7988   -3.6832 O.2      1 ZINC000096014559   -0.5200
19     C19     2.2175  -14.1434   -3.9277 C.3      1 ZINC000096014559    0.1000
20     H20     1.1402  -14.2581   -3.8077 H        1 ZINC000096014559    0.1400
21     O21     2.6832  -15.0441   -4.9346 O.3      1 ZINC000096014559   -0.5500
22     C22     2.9145  -14.4559   -2.6020 C.3      1 ZINC000096014559   -0.0900
23     C23     4.4108  -14.1640   -2.7313 C.3      1 ZINC000096014559   -0.1400
24     C24     2.3187  -13.5842   -1.4947 C.3      1 ZINC000096014559   -0.1400
25     C25     2.7110  -15.9319   -2.2543 C.3      1 ZINC000096014559    0.1500
26     O26     3.3620  -16.2237   -1.0161 O.3      1 ZINC000096014559   -0.7700
27     P27     3.3534  -17.6869   -0.3445 P.3      1 ZINC000096014559    2.2900
28     O28     1.8948  -18.1677   -0.1760 O.co2    1 ZINC000096014559   -1.1000
29     O29     4.1196  -18.6748   -1.2524 O.co2    1 ZINC000096014559   -1.1100
30     O30     4.0664  -17.6198    1.0974 O.3      1 ZINC000096014559   -1.0900
31     P31     4.1159  -18.6077    2.3677 P.3      1 ZINC000096014559    2.2900
32     O32     2.7197  -19.2307    2.5903 O.co2    1 ZINC000096014559   -1.1000
33     O33     5.1451  -19.7302    2.1074 O.co2    1 ZINC000096014559   -1.1000
34     O34     4.5477  -17.7768    3.6773 O.3      1 ZINC000096014559   -0.7700
35     C35     4.5818  -18.3493    4.9862 C.3      1 ZINC000096014559    0.1400
36     C36     5.0330  -17.2906    5.9944 C.3      1 ZINC000096014559    0.0700
37     H37     5.9822  -16.8531    5.6849 H        1 ZINC000096014559    0.1000
38     O38     4.0264  -16.2638    6.1296 O.3      1 ZINC000096014559   -0.3500
39     C39     4.2970  -15.6304    7.3990 C.3      1 ZINC000096014559    0.2600
40     H40     5.1338  -14.9381    7.3069 H        1 ZINC000096014559    0.1200
41     N41     3.1059  -14.9278    7.8826 N.pl3    1 ZINC000096014559   -0.4500
42     C42     1.8146  -15.2003    7.5414 C.2      1 ZINC000096014559    0.2900
43     N43     1.0103  -14.3821    8.1556 N.2      1 ZINC000096014559   -0.4800
44     C44     1.7322  -13.5350    8.9279 C.ar     1 ZINC000096014559   -0.1000
45     C45     1.4162  -12.4713    9.7899 C.ar     1 ZINC000096014559    0.5000
46     N46     0.1011  -12.0914    9.9932 N.pl3    1 ZINC000096014559   -0.8300
47     N47     2.4097  -11.8388   10.4058 N.ar     1 ZINC000096014559   -0.6000
48     C48     3.6674  -12.1947   10.2182 C.ar     1 ZINC000096014559    0.3400
49     N49     4.0104  -13.1840    9.4203 N.ar     1 ZINC000096014559   -0.5400
50     C50     3.0852  -13.8788    8.7666 C.ar     1 ZINC000096014559    0.2900
51     C51     4.6622  -16.7920    8.3497 C.3      1 ZINC000096014559    0.0600
52     H52     3.7839  -17.1223    8.9041 H        1 ZINC000096014559    0.0700
53     O53     5.7003  -16.3960    9.2484 O.3      1 ZINC000096014559   -0.5000
54     C54     5.1604  -17.9100    7.4038 C.3      1 ZINC000096014559    0.1500
55     H55     4.5276  -18.7933    7.4900 H        1 ZINC000096014559    0.0800
56     O56     6.5207  -18.2401    7.6915 O.3      1 ZINC000096014559   -0.7200
57     P57     6.9940  -19.7210    8.1096 P.3      1 ZINC000096014559    2.1200
58     O58     6.1671  -20.2029    9.3500 O.co2    1 ZINC000096014559   -1.1900
59     O59     6.7581  -20.7024    6.9114 O.co2    1 ZINC000096014559   -1.1700
60     O60     8.5175  -19.6988    8.4743 O.co2    1 ZINC000096014559   -1.1700
61     H61     8.6884   -4.3798  -15.5980 H        1 ZINC000096014559    0.0700
62     H62    10.1396   -4.2597  -14.5745 H        1 ZINC000096014559    0.0600
63     H63    10.1498   -5.3069  -16.0137 H        1 ZINC000096014559    0.0700
64     H64     8.8072   -7.4139  -16.0351 H        1 ZINC000096014559    0.0600
65     H65     7.8404   -7.8676  -14.6111 H        1 ZINC000096014559    0.0800
66     H66     7.3457   -6.4867  -15.6194 H        1 ZINC000096014559    0.0700
67     H67    10.7343   -6.2816  -13.2536 H        1 ZINC000096014559    0.3700
68     H68     8.7827   -4.8966  -12.5757 H        1 ZINC000096014559    0.1100
69     H69     7.3314   -5.0167  -13.5992 H        1 ZINC000096014559    0.1100
70     H70     5.9494   -8.6954  -11.2079 H        1 ZINC000096014559    0.1000
71     H71     7.4007   -8.5752  -10.1844 H        1 ZINC000096014559    0.1000
72     H72     6.0472   -7.5319   -8.3877 H        1 ZINC000096014559    0.0800
73     H73     4.5959   -7.6520   -9.4112 H        1 ZINC000096014559    0.0800
74     H74     5.7460  -10.2222   -9.1926 H        1 ZINC000096014559    0.4000
75     H75     3.8853  -11.7058   -7.9278 H        1 ZINC000096014559    0.1000
76     H76     5.3366  -11.5857   -6.9043 H        1 ZINC000096014559    0.1100
77     H77     3.9831  -10.5423   -5.1076 H        1 ZINC000096014559    0.0800
78     H78     2.5318  -10.6624   -6.1312 H        1 ZINC000096014559    0.0700
79     H79     3.6819  -13.2326   -5.9125 H        1 ZINC000096014559    0.4000
80     H80     3.6356  -14.9965   -5.0948 H        1 ZINC000096014559    0.3700
81     H81     4.5559  -13.1125   -2.9790 H        1 ZINC000096014559    0.0400
82     H82     4.9074  -14.3867   -1.7869 H        1 ZINC000096014559    0.0800
83     H83     4.8353  -14.7850   -3.5202 H        1 ZINC000096014559    0.0500
84     H84     1.2358  -13.7072   -1.4785 H        1 ZINC000096014559    0.0500
85     H85     2.7330  -13.8855   -0.5326 H        1 ZINC000096014559    0.0800
86     H86     2.5630  -12.5389   -1.6841 H        1 ZINC000096014559    0.0600
87     H87     1.6450  -16.1398   -2.1622 H        1 ZINC000096014559    0.0500
88     H88     3.1354  -16.5529   -3.0432 H        1 ZINC000096014559    0.0600
89     H89     3.5866  -18.7047    5.2533 H        1 ZINC000096014559    0.0600
90     H90     5.2816  -19.1849    4.9991 H        1 ZINC000096014559    0.1000
91     H91     1.5047  -15.9798    6.8611 H        1 ZINC000096014559    0.2300
92     H92    -0.6153  -12.5611    9.5381 H        1 ZINC000096014559    0.4200
93     H93    -0.1043  -11.3554   10.5907 H        1 ZINC000096014559    0.4000
94     H94     4.4438  -11.6536   10.7386 H        1 ZINC000096014559    0.2000
95     H95     5.4611  -15.6571    9.8245 H        1 ZINC000096014559    0.3500
@<TRIPOS>BOND
1     1     2     1
2     1     61    1
3     1     62    1
4     1     63    1
5     2     3     1
6     2     4     1
7     2     5     1
8     3     64    1
9     3     65    1
10    3     66    1
11    4     67    1
12    5     6     1
13    5     68    1
14    5     69    1
15    6     7     2
16    6     8     1
17    8     9     1
18    9     10    1
19    9     70    1
20    9     71    1
21    10    11    1
22    10    72    1
23    10    73    1
24    11    12    am
25    11    74    1
26    12    13    2
27    12    14    1
28    14    15    1
29    14    75    1
30    14    76    1
31    15    16    1
32    15    77    1
33    15    78    1
34    16    17    am
35    16    79    1
36    17    18    2
37    17    19    1
38    19    20    1
39    19    21    1
40    19    22    1
41    21    80    1
42    22    23    1
43    22    24    1
44    22    25    1
45    23    81    1
46    23    82    1
47    23    83    1
48    24    84    1
49    24    85    1
50    24    86    1
51    25    26    1
52    25    87    1
53    25    88    1
54    26    27    1
55    27    28    ar
56    27    29    ar
57    27    30    1
58    30    31    1
59    31    32    ar
60    31    33    ar
61    31    34    1
62    34    35    1
63    35    36    1
64    35    89    1
65    35    90    1
66    36    37    1
67    36    54    1
68    36    38    1
69    38    39    1
70    39    40    1
71    39    41    1
72    39    51    1
73    41    50    1
74    41    42    1
75    42    43    2
76    42    91    1
77    43    44    1
78    44    50    ar
79    44    45    ar
80    45    46    1
81    45    47    ar
82    46    92    1
83    46    93    1
84    47    48    ar
85    48    49    ar
86    48    94    1
87    49    50    ar
88    51    52    1
89    51    53    1
90    51    54    1
91    53    95    1
92    54    55    1
93    54    56    1
94    56    57    1
95    57    58    ar
96    57    59    ar
97    57    60    ar
@<TRIPOS>SUBSTRUCTURE
1   ZINC000096014559 1     RESIDUE    1   A     ZIN   1
@<TRIPOS>MOLECULE
ZINC000096077635
91    93    1     0     0
SMALL
USER_CHARGES
@<TRIPOS>ATOM
1      C1     -0.0985    1.3509    0.2822 C.3      1 ZINC000096077635   -0.1500
2      C2     -0.1133   -0.1556    0.0155 C.3      1 ZINC000096077635   -0.1000
3      C3      0.5901   -0.8836    1.1627 C.3      1 ZINC000096077635   -0.1300
4      C4     -1.5606   -0.6414   -0.0855 C.3      1 ZINC000096077635    0.1400
5      O5     -2.2415   -0.3681    1.1407 O.3      1 ZINC000096077635   -0.7600
6      P6     -3.7866   -0.7464    1.3890 P.3      1 ZINC000096077635    2.2900
7      O7     -4.6557   -0.1184    0.2767 O.co2    1 ZINC000096077635   -1.1000
8      O8     -3.9509   -2.2825    1.3654 O.co2    1 ZINC000096077635   -1.1100
9      O9     -4.2548   -0.1785    2.8209 O.3      1 ZINC000096077635   -1.0900
10     P10    -5.6875    0.0547    3.5174 P.3      1 ZINC000096077635    2.2900
11     O11    -6.6844    0.6047    2.4731 O.co2    1 ZINC000096077635   -1.1000
12     O12    -6.2135   -1.2867    4.0750 O.co2    1 ZINC000096077635   -1.1000
13     O13    -5.5331    1.1127    4.7211 O.3      1 ZINC000096077635   -0.7700
14     C14    -6.6453    1.6085    5.4689 C.3      1 ZINC000096077635    0.1400
15     C15    -6.1483    2.5907    6.5316 C.3      1 ZINC000096077635    0.0700
16     H16    -5.3807    2.1241    7.1491 H        1 ZINC000096077635    0.1000
17     O17    -5.6334    3.7875    5.9084 O.3      1 ZINC000096077635   -0.3500
18     C18    -5.6655    4.7977    6.9401 C.3      1 ZINC000096077635    0.2600
19     H19    -4.8245    4.6707    7.6218 H        1 ZINC000096077635    0.1200
20     N20    -5.6403    6.1359    6.3445 N.pl3    1 ZINC000096077635   -0.4500
21     C21    -6.0404    6.4653    5.0836 C.2      1 ZINC000096077635    0.2900
22     N22    -5.8814    7.7417    4.8859 N.2      1 ZINC000096077635   -0.4800
23     C23    -5.3706    8.3110    6.0040 C.ar     1 ZINC000096077635   -0.1000
24     C24    -5.0011    9.6170    6.3675 C.ar     1 ZINC000096077635    0.5000
25     N25    -5.1372   10.6657    5.4748 N.pl3    1 ZINC000096077635   -0.8300
26     N26    -4.5183    9.8219    7.5887 N.ar     1 ZINC000096077635   -0.6000
27     C27    -4.3854    8.8274    8.4472 C.ar     1 ZINC000096077635    0.3400
28     N28    -4.7178    7.5886    8.1506 N.ar     1 ZINC000096077635   -0.5400
29     C29    -5.2153    7.2885    6.9554 C.ar     1 ZINC000096077635    0.2900
30     C30    -6.9997    4.5617    7.6821 C.3      1 ZINC000096077635    0.0600
31     H31    -7.7809    5.2049    7.2771 H        1 ZINC000096077635    0.0700
32     O32    -6.8406    4.7912    9.0836 O.3      1 ZINC000096077635   -0.5000
33     C33    -7.3241    3.0741    7.4091 C.3      1 ZINC000096077635    0.1500
34     H34    -8.2659    2.9817    6.8681 H        1 ZINC000096077635    0.0800
35     O35    -7.3778    2.3403    8.6341 O.3      1 ZINC000096077635   -0.7200
36     P36    -8.6839    1.5312    9.1151 P.3      1 ZINC000096077635    2.1200
37     O37    -9.9162    2.4982    9.1433 O.co2    1 ZINC000096077635   -1.1900
38     O38    -8.9658    0.3550    8.1193 O.co2    1 ZINC000096077635   -1.1700
39     O39    -8.4408    0.9530   10.5508 O.co2    1 ZINC000096077635   -1.1700
40     C40     0.6157   -0.4483   -1.2974 C.3      1 ZINC000096077635    0.1100
41     H41     1.6142   -0.0124   -1.2635 H        1 ZINC000096077635    0.1200
42     O42     0.7190   -1.8618   -1.4801 O.3      1 ZINC000096077635   -0.5400
43     C43    -0.1555    0.1515   -2.4448 C.2      1 ZINC000096077635    0.4900
44     O44    -0.7013   -0.5707   -3.2519 O.2      1 ZINC000096077635   -0.5300
45     N45    -0.2388    1.4905   -2.5740 N.am     1 ZINC000096077635   -0.7300
46     C46    -1.0675    2.0742   -3.6317 C.3      1 ZINC000096077635    0.1300
47     C47    -0.9878    3.6004   -3.5583 C.3      1 ZINC000096077635   -0.1500
48     C48    -1.8403    4.2008   -4.6463 C.2      1 ZINC000096077635    0.5200
49     O49    -2.4515    3.4791   -5.4056 O.2      1 ZINC000096077635   -0.5300
50     N50    -1.9236    5.5398   -4.7755 N.am     1 ZINC000096077635   -0.7300
51     C51    -2.7523    6.1235   -5.8332 C.3      1 ZINC000096077635    0.1400
52     C52    -2.6726    7.6497   -5.7598 C.3      1 ZINC000096077635   -0.1100
53     S53    -3.6965    8.3708   -7.0665 S.3      1 ZINC000096077635   -0.1500
54     C54    -3.4343   10.0356   -6.7650 C.2      1 ZINC000096077635    0.3400
55     O55    -2.7095   10.3805   -5.8552 O.2      1 ZINC000096077635   -0.4300
56     C56    -4.1038   11.0725   -7.6296 C.3      1 ZINC000096077635   -0.1600
57     C57    -3.7053   12.4700   -7.1510 C.3      1 ZINC000096077635    0.0500
58     H58    -2.6185   12.5527   -7.1359 H        1 ZINC000096077635    0.0900
59     O59    -4.2179   12.6870   -5.8349 O.3      1 ZINC000096077635   -0.5500
60     C60    -4.2747   13.5034   -8.0886 C.2      1 ZINC000096077635    0.4700
61     O61    -5.1166   14.2901   -7.6901 O.co2    1 ZINC000096077635   -0.6800
62     O62    -3.8934   13.5527   -9.2456 O.co2    1 ZINC000096077635   -0.7000
63     H63     0.9273    1.7171    0.2410 H        1 ZINC000096077635    0.0500
64     H64    -0.6966    1.8597   -0.4738 H        1 ZINC000096077635    0.0600
65     H65    -0.5157    1.5492    1.2695 H        1 ZINC000096077635    0.0800
66     H66     0.0362   -0.7245    2.0879 H        1 ZINC000096077635    0.0800
67     H67     0.6331   -1.9505    0.9439 H        1 ZINC000096077635    0.0600
68     H68     1.6022   -0.4943    1.2737 H        1 ZINC000096077635    0.0500
69     H69    -2.0617   -0.1228   -0.9028 H        1 ZINC000096077635    0.0500
70     H70    -1.5712   -1.7147   -0.2755 H        1 ZINC000096077635    0.0500
71     H71    -7.3362    2.1185    4.7976 H        1 ZINC000096077635    0.0600
72     H72    -7.1569    0.7770    5.9537 H        1 ZINC000096077635    0.1000
73     H73    -6.4312    5.7695    4.3559 H        1 ZINC000096077635    0.2300
74     H74    -5.4912   10.5036    4.5864 H        1 ZINC000096077635    0.4200
75     H75    -4.8786   11.5629    5.7376 H        1 ZINC000096077635    0.4000
76     H76    -3.9887    9.0381    9.4294 H        1 ZINC000096077635    0.2000
77     H77    -6.5780    5.6946    9.3069 H        1 ZINC000096077635    0.3500
78     H78    -0.1335   -2.3166   -1.5195 H        1 ZINC000096077635    0.3900
79     H79     0.2500    2.0677   -1.9666 H        1 ZINC000096077635    0.4000
80     H80    -0.7064    1.7378   -4.6035 H        1 ZINC000096077635    0.0700
81     H81    -2.1021    1.7576   -3.4990 H        1 ZINC000096077635    0.0900
82     H82    -1.3490    3.9367   -2.5864 H        1 ZINC000096077635    0.1100
83     H83     0.0467    3.9170   -3.6909 H        1 ZINC000096077635    0.1000
84     H84    -1.4348    6.1170   -4.1681 H        1 ZINC000096077635    0.4000
85     H85    -2.3912    5.7871   -6.8050 H        1 ZINC000096077635    0.0800
86     H86    -3.7869    5.8069   -5.7005 H        1 ZINC000096077635    0.0800
87     H87    -3.0338    7.9860   -4.7879 H        1 ZINC000096077635    0.1000
88     H88    -1.6381    7.9663   -5.8924 H        1 ZINC000096077635    0.1000
89     H89    -3.7900   10.9398   -8.6650 H        1 ZINC000096077635    0.1100
90     H90    -5.1857   10.9596   -7.5605 H        1 ZINC000096077635    0.1000
91     H91    -5.1812   12.6282   -5.7734 H        1 ZINC000096077635    0.3700
@<TRIPOS>BOND
1     1     2     1
2     1     63    1
3     1     64    1
4     1     65    1
5     2     3     1
6     2     4     1
7     2     40    1
8     3     66    1
9     3     67    1
10    3     68    1
11    4     5     1
12    4     69    1
13    4     70    1
14    5     6     1
15    6     7     ar
16    6     8     ar
17    6     9     1
18    9     10    1
19    10    11    ar
20    10    12    ar
21    10    13    1
22    13    14    1
23    14    15    1
24    14    71    1
25    14    72    1
26    15    16    1
27    15    33    1
28    15    17    1
29    17    18    1
30    18    19    1
31    18    20    1
32    18    30    1
33    20    29    1
34    20    21    1
35    21    22    2
36    21    73    1
37    22    23    1
38    23    29    ar
39    23    24    ar
40    24    25    1
41    24    26    ar
42    25    74    1
43    25    75    1
44    26    27    ar
45    27    28    ar
46    27    76    1
47    28    29    ar
48    30    31    1
49    30    32    1
50    30    33    1
51    32    77    1
52    33    34    1
53    33    35    1
54    35    36    1
55    36    37    ar
56    36    38    ar
57    36    39    ar
58    40    41    1
59    40    42    1
60    40    43    1
61    42    78    1
62    43    44    2
63    43    45    am
64    45    46    1
65    45    79    1
66    46    47    1
67    46    80    1
68    46    81    1
69    47    48    1
70    47    82    1
71    47    83    1
72    48    49    2
73    48    50    am
74    50    51    1
75    50    84    1
76    51    52    1
77    51    85    1
78    51    86    1
79    52    53    1
80    52    87    1
81    52    88    1
82    53    54    1
83    54    55    2
84    54    56    1
85    56    57    1
86    56    89    1
87    56    90    1
88    57    58    1
89    57    59    1
90    57    60    1
91    59    91    1
92    60    61    ar
93    60    62    ar
@<TRIPOS>SUBSTRUCTURE
1   ZINC000096077635 1     RESIDUE    1   A     ZIN   1
@<TRIPOS>MOLECULE
ZINC000096085221
105   107   1     0     0
SMALL
USER_CHARGES
@<TRIPOS>ATOM
1      C1    -21.5342  -11.9046   18.4370 C.3      1 ZINC000096085221   -0.1500
2      C2    -20.7384  -12.8952   17.5848 C.3      1 ZINC000096085221   -0.1300
3      C3    -19.2525  -12.5346   17.6374 C.3      1 ZINC000096085221   -0.1200
4      C4    -18.4567  -13.5252   16.7852 C.3      1 ZINC000096085221   -0.1200
5      C5    -16.9708  -13.1646   16.8378 C.3      1 ZINC000096085221   -0.1000
6      C6    -16.1870  -14.1403   15.9984 C.2      1 ZINC000096085221   -0.1100
7      C7    -15.3888  -13.6939   15.0273 C.2      1 ZINC000096085221   -0.1600
8      C8    -14.6276  -14.6416   14.2121 C.2      1 ZINC000096085221   -0.0100
9      C9    -13.8189  -14.1893   13.2282 C.2      1 ZINC000096085221   -0.2200
10     C10   -13.0582  -15.1364   12.4135 C.2      1 ZINC000096085221    0.3800
11     O11   -13.1534  -16.3323   12.6217 O.2      1 ZINC000096085221   -0.4500
12     S12   -12.0039  -14.5467   11.1308 S.3      1 ZINC000096085221   -0.1400
13     C13   -11.3611  -16.1187   10.5048 C.3      1 ZINC000096085221   -0.1100
14     C14   -10.3938  -15.8505    9.3500 C.3      1 ZINC000096085221    0.1400
15     N15    -9.8736  -17.1229    8.8433 N.am     1 ZINC000096085221   -0.7300
16     C16    -8.9982  -17.1327    7.8186 C.2      1 ZINC000096085221    0.5200
17     O17    -8.6411  -16.0883    7.3159 O.2      1 ZINC000096085221   -0.5300
18     C18    -8.4630  -18.4415    7.2974 C.3      1 ZINC000096085221   -0.1500
19     C19    -7.4958  -18.1734    6.1426 C.3      1 ZINC000096085221    0.1400
20     N20    -6.9755  -19.4457    5.6359 N.am     1 ZINC000096085221   -0.7400
21     C21    -6.1001  -19.4556    4.6112 C.2      1 ZINC000096085221    0.5000
22     O22    -5.8142  -18.4203    4.0478 O.2      1 ZINC000096085221   -0.5300
23     C23    -5.4765  -20.7530    4.1654 C.3      1 ZINC000096085221    0.1000
24     H24    -5.5538  -20.8398    3.0816 H        1 ZINC000096085221    0.1400
25     O25    -6.1604  -21.8465    4.7808 O.3      1 ZINC000096085221   -0.5500
26     C26    -4.0026  -20.7778    4.5752 C.3      1 ZINC000096085221   -0.0900
27     C27    -3.2402  -19.6997    3.8022 C.3      1 ZINC000096085221   -0.1400
28     C28    -3.8860  -20.5075    6.0766 C.3      1 ZINC000096085221   -0.1400
29     C29    -3.4076  -22.1508    4.2565 C.3      1 ZINC000096085221    0.1500
30     O30    -2.0310  -22.1739    4.6392 O.3      1 ZINC000096085221   -0.7700
31     P31    -1.0892  -23.4657    4.4479 P.3      1 ZINC000096085221    2.2900
32     O32    -1.7388  -24.6839    5.1416 O.co2    1 ZINC000096085221   -1.1000
33     O33    -0.9200  -23.7610    2.9408 O.co2    1 ZINC000096085221   -1.1100
34     O34     0.3530  -23.1803    5.1041 O.3      1 ZINC000096085221   -1.0900
35     P35     1.5973  -24.1138    5.5192 P.3      1 ZINC000096085221    2.2900
36     O36     1.0715  -25.4215    6.1519 O.co2    1 ZINC000096085221   -1.1000
37     O37     2.4316  -24.4487    4.2627 O.co2    1 ZINC000096085221   -1.1000
38     O38     2.5202  -23.3355    6.5844 O.3      1 ZINC000096085221   -0.7700
39     C39     3.6468  -23.9378    7.2247 C.3      1 ZINC000096085221    0.1400
40     C40     4.2963  -22.9264    8.1714 C.3      1 ZINC000096085221    0.0700
41     H41     4.5382  -22.0081    7.6365 H        1 ZINC000096085221    0.1000
42     O42     3.4196  -22.6442    9.2839 O.3      1 ZINC000096085221   -0.3500
43     C43     4.2764  -22.1136   10.3184 C.3      1 ZINC000096085221    0.2600
44     H44     4.5168  -21.0703   10.1139 H        1 ZINC000096085221    0.1200
45     N45     3.6328  -22.2403   11.6284 N.pl3    1 ZINC000096085221   -0.4500
46     C46     2.6636  -23.1369   11.9676 C.2      1 ZINC000096085221    0.2900
47     N47     2.3193  -22.9701   13.2115 N.2      1 ZINC000096085221   -0.4800
48     C48     3.0435  -21.9587   13.7481 C.ar     1 ZINC000096085221   -0.1000
49     C49     3.1026  -21.3482   15.0123 C.ar     1 ZINC000096085221    0.5000
50     N50     2.2886  -21.7787   16.0453 N.pl3    1 ZINC000096085221   -0.8300
51     N51     3.9589  -20.3479   15.1929 N.ar     1 ZINC000096085221   -0.6000
52     C52     4.7397  -19.9307   14.2132 C.ar     1 ZINC000096085221    0.3400
53     N53     4.7184  -20.4720   13.0134 N.ar     1 ZINC000096085221   -0.5400
54     C54     3.8992  -21.4822   12.7405 C.ar     1 ZINC000096085221    0.2900
55     C55     5.5528  -22.9815   10.2575 C.3      1 ZINC000096085221    0.0600
56     H56     5.4929  -23.7998   10.9752 H        1 ZINC000096085221    0.0700
57     O57     6.7127  -22.1843   10.5048 O.3      1 ZINC000096085221   -0.5000
58     C58     5.5679  -23.5275    8.8103 C.3      1 ZINC000096085221    0.1500
59     H59     5.5146  -24.6162    8.8123 H        1 ZINC000096085221    0.0800
60     O60     6.7390  -23.0861    8.1207 O.3      1 ZINC000096085221   -0.7200
61     P61     7.8139  -24.0993    7.4805 P.3      1 ZINC000096085221    2.1200
62     O62     8.3174  -25.0918    8.5832 O.co2    1 ZINC000096085221   -1.1900
63     O63     7.1423  -24.9071    6.3182 O.co2    1 ZINC000096085221   -1.1700
64     O64     9.0280  -23.2851    6.9170 O.co2    1 ZINC000096085221   -1.1700
65     H65   -22.5928  -12.1615   18.3995 H        1 ZINC000096085221    0.0500
66     H66   -21.1854  -11.9507   19.4686 H        1 ZINC000096085221    0.0500
67     H67   -21.3913  -10.8957   18.0499 H        1 ZINC000096085221    0.0500
68     H68   -20.8814  -13.9041   17.9718 H        1 ZINC000096085221    0.0600
69     H69   -21.0872  -12.8491   16.5531 H        1 ZINC000096085221    0.0600
70     H70   -19.1096  -11.5257   17.2503 H        1 ZINC000096085221    0.0600
71     H71   -18.9037  -12.5807   18.6690 H        1 ZINC000096085221    0.0600
72     H72   -18.5997  -14.5341   17.1723 H        1 ZINC000096085221    0.0600
73     H73   -18.8055  -13.4791   15.7535 H        1 ZINC000096085221    0.0600
74     H74   -16.8279  -12.1557   16.4507 H        1 ZINC000096085221    0.0700
75     H75   -16.6220  -13.2107   17.8695 H        1 ZINC000096085221    0.0800
76     H76   -16.2715  -15.2011   16.1831 H        1 ZINC000096085221    0.1200
77     H77   -15.3043  -12.6332   14.8426 H        1 ZINC000096085221    0.1200
78     H78   -14.7121  -15.7023   14.3968 H        1 ZINC000096085221    0.1300
79     H79   -13.7344  -13.1286   13.0435 H        1 ZINC000096085221    0.1400
80     H80   -10.8361  -16.6409   11.3046 H        1 ZINC000096085221    0.1000
81     H81   -12.1880  -16.7341   10.1506 H        1 ZINC000096085221    0.1000
82     H82   -10.9188  -15.3283    8.5501 H        1 ZINC000096085221    0.0800
83     H83    -9.5669  -15.2351    9.7042 H        1 ZINC000096085221    0.0800
84     H84   -10.1591  -17.9582    9.2453 H        1 ZINC000096085221    0.4000
85     H85    -7.9380  -18.9638    8.0972 H        1 ZINC000096085221    0.1100
86     H86    -9.2900  -19.0570    6.9432 H        1 ZINC000096085221    0.1000
87     H87    -8.0207  -17.6511    5.3427 H        1 ZINC000096085221    0.0700
88     H88    -6.6688  -17.5579    6.4968 H        1 ZINC000096085221    0.0800
89     H89    -7.2611  -20.2810    6.0379 H        1 ZINC000096085221    0.4000
90     H90    -6.1327  -21.8338    5.7473 H        1 ZINC000096085221    0.3700
91     H91    -3.6123  -18.7159    4.0882 H        1 ZINC000096085221    0.0600
92     H92    -2.1776  -19.7682    4.0355 H        1 ZINC000096085221    0.0800
93     H93    -3.3875  -19.8470    2.7323 H        1 ZINC000096085221    0.0500
94     H94    -4.4292  -21.2755    6.6272 H        1 ZINC000096085221    0.0500
95     H95    -2.8360  -20.5251    6.3685 H        1 ZINC000096085221    0.0800
96     H96    -4.3099  -19.5293    6.3036 H        1 ZINC000096085221    0.0400
97     H97    -3.9508  -22.9189    4.8071 H        1 ZINC000096085221    0.0600
98     H98    -3.4906  -22.3434    3.1868 H        1 ZINC000096085221    0.0500
99     H99     3.3193  -24.8087    7.7926 H        1 ZINC000096085221    0.0600
100    H100    4.3709  -24.2469    6.4709 H        1 ZINC000096085221    0.1000
101    H101    2.2431  -23.8762   11.3021 H        1 ZINC000096085221    0.2300
102    H102    1.6679  -22.5101   15.9011 H        1 ZINC000096085221    0.4200
103    H103    2.3387  -21.3492   16.9135 H        1 ZINC000096085221    0.4000
104    H104    5.4211  -19.1146   14.4033 H        1 ZINC000096085221    0.2000
105    H105    6.7254  -21.7685   11.3777 H        1 ZINC000096085221    0.3500
@<TRIPOS>BOND
1     1     2     1
2     1     65    1
3     1     66    1
4     1     67    1
5     2     3     1
6     2     68    1
7     2     69    1
8     3     4     1
9     3     70    1
10    3     71    1
11    4     5     1
12    4     72    1
13    4     73    1
14    5     6     1
15    5     74    1
16    5     75    1
17    6     7     2
18    6     76    1
19    7     8     1
20    7     77    1
21    8     9     2
22    8     78    1
23    9     10    1
24    9     79    1
25    10    11    2
26    10    12    1
27    12    13    1
28    13    14    1
29    13    80    1
30    13    81    1
31    14    15    1
32    14    82    1
33    14    83    1
34    15    16    am
35    15    84    1
36    16    17    2
37    16    18    1
38    18    19    1
39    18    85    1
40    18    86    1
41    19    20    1
42    19    87    1
43    19    88    1
44    20    21    am
45    20    89    1
46    21    22    2
47    21    23    1
48    23    24    1
49    23    25    1
50    23    26    1
51    25    90    1
52    26    27    1
53    26    28    1
54    26    29    1
55    27    91    1
56    27    92    1
57    27    93    1
58    28    94    1
59    28    95    1
60    28    96    1
61    29    30    1
62    29    97    1
63    29    98    1
64    30    31    1
65    31    32    ar
66    31    33    ar
67    31    34    1
68    34    35    1
69    35    36    ar
70    35    37    ar
71    35    38    1
72    38    39    1
73    39    40    1
74    39    99    1
75    39    100   1
76    40    41    1
77    40    58    1
78    40    42    1
79    42    43    1
80    43    44    1
81    43    45    1
82    43    55    1
83    45    54    1
84    45    46    1
85    46    47    2
86    46    101   1
87    47    48    1
88    48    54    ar
89    48    49    ar
90    49    50    1
91    49    51    ar
92    50    102   1
93    50    103   1
94    51    52    ar
95    52    53    ar
96    52    104   1
97    53    54    ar
98    55    56    1
99    55    57    1
100   55    58    1
101   57    105   1
102   58    59    1
103   58    60    1
104   60    61    1
105   61    62    ar
106   61    63    ar
107   61    64    ar
@<TRIPOS>SUBSTRUCTURE
1   ZINC000096085221 1     RESIDUE    1   A     ZIN   1
@<TRIPOS>MOLECULE
ZINC000096077650
98    100   1     0     0
SMALL
USER_CHARGES
@<TRIPOS>ATOM
1      C1     -0.0985    1.3509    0.2822 C.3      1 ZINC000096077650   -0.1500
2      C2     -0.1133   -0.1556    0.0155 C.3      1 ZINC000096077650   -0.1000
3      C3      0.5901   -0.8836    1.1627 C.3      1 ZINC000096077650   -0.1300
4      C4     -1.5606   -0.6414   -0.0855 C.3      1 ZINC000096077650    0.1400
5      O5     -2.2415   -0.3681    1.1407 O.3      1 ZINC000096077650   -0.7600
6      P6     -3.7866   -0.7464    1.3890 P.3      1 ZINC000096077650    2.2900
7      O7     -4.6557   -0.1184    0.2767 O.co2    1 ZINC000096077650   -1.1000
8      O8     -3.9509   -2.2825    1.3654 O.co2    1 ZINC000096077650   -1.1100
9      O9     -4.2548   -0.1785    2.8209 O.3      1 ZINC000096077650   -1.0900
10     P10    -5.6875    0.0547    3.5174 P.3      1 ZINC000096077650    2.2900
11     O11    -6.6844    0.6047    2.4731 O.co2    1 ZINC000096077650   -1.1000
12     O12    -6.2135   -1.2867    4.0750 O.co2    1 ZINC000096077650   -1.1000
13     O13    -5.5331    1.1127    4.7211 O.3      1 ZINC000096077650   -0.7700
14     C14    -6.6453    1.6085    5.4689 C.3      1 ZINC000096077650    0.1400
15     C15    -6.1483    2.5907    6.5316 C.3      1 ZINC000096077650    0.0700
16     H16    -5.3807    2.1241    7.1491 H        1 ZINC000096077650    0.1000
17     O17    -5.6334    3.7875    5.9084 O.3      1 ZINC000096077650   -0.3500
18     C18    -5.6655    4.7977    6.9401 C.3      1 ZINC000096077650    0.2600
19     H19    -4.8245    4.6707    7.6218 H        1 ZINC000096077650    0.1200
20     N20    -5.6403    6.1359    6.3445 N.pl3    1 ZINC000096077650   -0.4500
21     C21    -6.0404    6.4653    5.0836 C.2      1 ZINC000096077650    0.2900
22     N22    -5.8814    7.7417    4.8859 N.2      1 ZINC000096077650   -0.4800
23     C23    -5.3706    8.3110    6.0040 C.ar     1 ZINC000096077650   -0.1000
24     C24    -5.0011    9.6170    6.3675 C.ar     1 ZINC000096077650    0.5000
25     N25    -5.1372   10.6657    5.4748 N.pl3    1 ZINC000096077650   -0.8300
26     N26    -4.5183    9.8219    7.5887 N.ar     1 ZINC000096077650   -0.6000
27     C27    -4.3854    8.8274    8.4472 C.ar     1 ZINC000096077650    0.3400
28     N28    -4.7178    7.5886    8.1506 N.ar     1 ZINC000096077650   -0.5400
29     C29    -5.2153    7.2885    6.9554 C.ar     1 ZINC000096077650    0.2900
30     C30    -6.9997    4.5617    7.6821 C.3      1 ZINC000096077650    0.0600
31     H31    -7.7809    5.2049    7.2771 H        1 ZINC000096077650    0.0700
32     O32    -6.8406    4.7912    9.0836 O.3      1 ZINC000096077650   -0.5000
33     C33    -7.3241    3.0741    7.4091 C.3      1 ZINC000096077650    0.1500
34     H34    -8.2659    2.9817    6.8681 H        1 ZINC000096077650    0.0800
35     O35    -7.3778    2.3403    8.6341 O.3      1 ZINC000096077650   -0.7200
36     P36    -8.6839    1.5312    9.1151 P.3      1 ZINC000096077650    2.1200
37     O37    -9.9162    2.4982    9.1433 O.co2    1 ZINC000096077650   -1.1900
38     O38    -8.9658    0.3550    8.1193 O.co2    1 ZINC000096077650   -1.1700
39     O39    -8.4408    0.9530   10.5508 O.co2    1 ZINC000096077650   -1.1700
40     C40     0.6157   -0.4483   -1.2974 C.3      1 ZINC000096077650    0.1100
41     H41     1.6142   -0.0124   -1.2635 H        1 ZINC000096077650    0.1200
42     O42     0.7190   -1.8618   -1.4801 O.3      1 ZINC000096077650   -0.5400
43     C43    -0.1555    0.1515   -2.4448 C.2      1 ZINC000096077650    0.4900
44     O44    -0.7013   -0.5707   -3.2519 O.2      1 ZINC000096077650   -0.5300
45     N45    -0.2388    1.4905   -2.5740 N.am     1 ZINC000096077650   -0.7300
46     C46    -1.0675    2.0742   -3.6317 C.3      1 ZINC000096077650    0.1300
47     C47    -0.9878    3.6004   -3.5583 C.3      1 ZINC000096077650   -0.1500
48     C48    -1.8403    4.2008   -4.6463 C.2      1 ZINC000096077650    0.5200
49     O49    -2.4515    3.4791   -5.4056 O.2      1 ZINC000096077650   -0.5300
50     N50    -1.9236    5.5398   -4.7755 N.am     1 ZINC000096077650   -0.7300
51     C51    -2.7523    6.1235   -5.8332 C.3      1 ZINC000096077650    0.1400
52     C52    -2.6726    7.6497   -5.7598 C.3      1 ZINC000096077650   -0.1100
53     S53    -3.6965    8.3708   -7.0665 S.3      1 ZINC000096077650   -0.1300
54     C54    -3.4343   10.0356   -6.7650 C.2      1 ZINC000096077650    0.3300
55     O55    -2.7095   10.3805   -5.8552 O.2      1 ZINC000096077650   -0.4000
56     C56    -4.1038   11.0725   -7.6296 C.3      1 ZINC000096077650   -0.2000
57     C57    -3.7113   12.4490   -7.1582 C.2      1 ZINC000096077650    0.3500
58     O58    -2.9649   12.5750   -6.2173 O.2      1 ZINC000096077650   -0.4100
59     C59    -4.2502   13.6683   -7.8611 C.3      1 ZINC000096077650   -0.1700
60     C60    -3.7009   14.9285   -7.1895 C.3      1 ZINC000096077650   -0.0900
61     C61    -4.2480   16.1664   -7.9031 C.3      1 ZINC000096077650   -0.1800
62     C62    -3.7070   17.4077   -7.2416 C.2      1 ZINC000096077650    0.4900
63     O63    -2.9536   17.3112   -6.2879 O.co2    1 ZINC000096077650   -0.6900
64     O64    -4.0226   18.5085   -7.6602 O.co2    1 ZINC000096077650   -0.7100
65     H65     0.9273    1.7171    0.2410 H        1 ZINC000096077650    0.0500
66     H66    -0.6966    1.8597   -0.4738 H        1 ZINC000096077650    0.0600
67     H67    -0.5157    1.5492    1.2695 H        1 ZINC000096077650    0.0800
68     H68     0.0362   -0.7245    2.0879 H        1 ZINC000096077650    0.0800
69     H69     0.6331   -1.9505    0.9439 H        1 ZINC000096077650    0.0600
70     H70     1.6022   -0.4943    1.2737 H        1 ZINC000096077650    0.0500
71     H71    -2.0617   -0.1228   -0.9028 H        1 ZINC000096077650    0.0500
72     H72    -1.5712   -1.7147   -0.2755 H        1 ZINC000096077650    0.0500
73     H73    -7.3362    2.1185    4.7976 H        1 ZINC000096077650    0.0600
74     H74    -7.1569    0.7770    5.9537 H        1 ZINC000096077650    0.1000
75     H75    -6.4312    5.7695    4.3559 H        1 ZINC000096077650    0.2300
76     H76    -5.4912   10.5036    4.5864 H        1 ZINC000096077650    0.4200
77     H77    -4.8786   11.5629    5.7376 H        1 ZINC000096077650    0.4000
78     H78    -3.9887    9.0381    9.4294 H        1 ZINC000096077650    0.2000
79     H79    -6.5780    5.6946    9.3069 H        1 ZINC000096077650    0.3500
80     H80    -0.1335   -2.3166   -1.5195 H        1 ZINC000096077650    0.3900
81     H81     0.2500    2.0677   -1.9666 H        1 ZINC000096077650    0.4000
82     H82    -0.7064    1.7378   -4.6035 H        1 ZINC000096077650    0.0700
83     H83    -2.1021    1.7576   -3.4990 H        1 ZINC000096077650    0.0900
84     H84    -1.3490    3.9367   -2.5864 H        1 ZINC000096077650    0.1100
85     H85     0.0467    3.9170   -3.6909 H        1 ZINC000096077650    0.1000
86     H86    -1.4348    6.1170   -4.1681 H        1 ZINC000096077650    0.4000
87     H87    -2.3912    5.7871   -6.8050 H        1 ZINC000096077650    0.0800
88     H88    -3.7869    5.8069   -5.7005 H        1 ZINC000096077650    0.0800
89     H89    -3.0338    7.9860   -4.7879 H        1 ZINC000096077650    0.1100
90     H90    -1.6381    7.9663   -5.8924 H        1 ZINC000096077650    0.1000
91     H91    -3.7900   10.9398   -8.6650 H        1 ZINC000096077650    0.1300
92     H92    -5.1857   10.9596   -7.5605 H        1 ZINC000096077650    0.1400
93     H93    -3.9429   13.6505   -8.9067 H        1 ZINC000096077650    0.0900
94     H94    -5.3386   13.6702   -7.8022 H        1 ZINC000096077650    0.0900
95     H95    -4.0082   14.9464   -6.1439 H        1 ZINC000096077650    0.0700
96     H96    -2.6125   14.9266   -7.2484 H        1 ZINC000096077650    0.0600
97     H97    -3.9407   16.1486   -8.9487 H        1 ZINC000096077650    0.0500
98     H98    -5.3364   16.1684   -7.8442 H        1 ZINC000096077650    0.0600
@<TRIPOS>BOND
1     1     2     1
2     1     65    1
3     1     66    1
4     1     67    1
5     2     3     1
6     2     4     1
7     2     40    1
8     3     68    1
9     3     69    1
10    3     70    1
11    4     5     1
12    4     71    1
13    4     72    1
14    5     6     1
15    6     7     ar
16    6     8     ar
17    6     9     1
18    9     10    1
19    10    11    ar
20    10    12    ar
21    10    13    1
22    13    14    1
23    14    15    1
24    14    73    1
25    14    74    1
26    15    16    1
27    15    33    1
28    15    17    1
29    17    18    1
30    18    19    1
31    18    20    1
32    18    30    1
33    20    29    1
34    20    21    1
35    21    22    2
36    21    75    1
37    22    23    1
38    23    29    ar
39    23    24    ar
40    24    25    1
41    24    26    ar
42    25    76    1
43    25    77    1
44    26    27    ar
45    27    28    ar
46    27    78    1
47    28    29    ar
48    30    31    1
49    30    32    1
50    30    33    1
51    32    79    1
52    33    34    1
53    33    35    1
54    35    36    1
55    36    37    ar
56    36    38    ar
57    36    39    ar
58    40    41    1
59    40    42    1
60    40    43    1
61    42    80    1
62    43    44    2
63    43    45    am
64    45    46    1
65    45    81    1
66    46    47    1
67    46    82    1
68    46    83    1
69    47    48    1
70    47    84    1
71    47    85    1
72    48    49    2
73    48    50    am
74    50    51    1
75    50    86    1
76    51    52    1
77    51    87    1
78    51    88    1
79    52    53    1
80    52    89    1
81    52    90    1
82    53    54    1
83    54    55    2
84    54    56    1
85    56    57    1
86    56    91    1
87    56    92    1
88    57    58    2
89    57    59    1
90    59    60    1
91    59    93    1
92    59    94    1
93    60    61    1
94    60    95    1
95    60    96    1
96    61    62    1
97    61    97    1
98    61    98    1
99    62    63    ar
100   62    64    ar
@<TRIPOS>SUBSTRUCTURE
1   ZINC000096077650 1     RESIDUE    1   A     ZIN   1
@<TRIPOS>MOLECULE
ZINC000096077667
97    100   1     0     0
SMALL
USER_CHARGES
@<TRIPOS>ATOM
1      C1      0.6821    0.2804   -2.5327 C.3      1 ZINC000096077667   -0.1500
2      C2      0.7367   -1.1164   -3.1546 C.3      1 ZINC000096077667   -0.1000
3      C3      1.5118   -2.0567   -2.2294 C.3      1 ZINC000096077667   -0.1300
4      C4     -0.6860   -1.6461   -3.3445 C.3      1 ZINC000096077667    0.1400
5      O5     -1.3420   -1.7145   -2.0767 O.3      1 ZINC000096077667   -0.7600
6      P6     -2.8571   -2.2294   -1.9000 P.3      1 ZINC000096077667    2.2900
7      O7     -3.7914   -1.4039   -2.8126 O.co2    1 ZINC000096077667   -1.1000
8      O8     -2.9427   -3.7218   -2.2905 O.co2    1 ZINC000096077667   -1.1100
9      O9     -3.3096   -2.0494   -0.3654 O.3      1 ZINC000096077667   -1.0900
10     P10    -4.7302   -2.0727    0.3918 P.3      1 ZINC000096077667    2.2900
11     O11    -5.7859   -1.3465   -0.4714 O.co2    1 ZINC000096077667   -1.1000
12     O12    -5.1690   -3.5367    0.6186 O.co2    1 ZINC000096077667   -1.1000
13     O13    -4.5935   -1.3273    1.8123 O.3      1 ZINC000096077667   -0.7700
14     C14    -5.7061   -1.0901    2.6770 C.3      1 ZINC000096077667    0.1400
15     C15    -5.2278   -0.3646    3.9363 C.3      1 ZINC000096077667    0.0700
16     H16    -4.4185   -0.9207    4.4095 H        1 ZINC000096077667    0.1000
17     O17    -4.7947    0.9743    3.6112 O.3      1 ZINC000096077667   -0.3500
18     C18    -4.8470    1.7040    4.8565 C.3      1 ZINC000096077667    0.2600
19     H19    -3.9799    1.4657    5.4726 H        1 ZINC000096077667    0.1200
20     N20    -4.9092    3.1452    4.6010 N.pl3    1 ZINC000096077667   -0.4500
21     C21    -5.3644    3.7439    3.4640 C.2      1 ZINC000096077667    0.2900
22     N22    -5.2775    5.0374    3.5772 N.2      1 ZINC000096077667   -0.4800
23     C23    -4.7625    5.3503    4.7905 C.ar     1 ZINC000096077667   -0.1000
24     C24    -4.4497    6.5500    5.4517 C.ar     1 ZINC000096077667    0.5000
25     N25    -4.6671    7.7726    4.8409 N.pl3    1 ZINC000096077667   -0.8300
26     N26    -3.9406    6.4832    6.6777 N.ar     1 ZINC000096077667   -0.6000
27     C27    -3.7302    5.3212    7.2685 C.ar     1 ZINC000096077667    0.3400
28     N28    -4.0074    4.1728    6.6877 N.ar     1 ZINC000096077667   -0.5400
29     C29    -4.5254    4.1401    5.4643 C.ar     1 ZINC000096077667    0.2900
30     C30    -6.1437    1.2207    5.5430 C.3      1 ZINC000096077667    0.0600
31     H31    -6.9692    1.8963    5.3188 H        1 ZINC000096077667    0.0700
32     O32    -5.9535    1.1161    6.9554 O.3      1 ZINC000096077667   -0.5000
33     C33    -6.3993   -0.1741    4.9250 C.3      1 ZINC000096077667    0.1500
34     H34    -7.3513   -0.1880    4.3942 H        1 ZINC000096077667    0.0800
35     O35    -6.3773   -1.1821    5.9376 O.3      1 ZINC000096077667   -0.7200
36     P36    -7.6246   -2.1566    6.2321 P.3      1 ZINC000096077667    2.1200
37     O37    -8.9036   -1.2971    6.5143 O.co2    1 ZINC000096077667   -1.1900
38     O38    -7.8760   -3.0738    4.9871 O.co2    1 ZINC000096077667   -1.1700
39     O39    -7.3078   -3.0473    7.4814 O.co2    1 ZINC000096077667   -1.1700
40     C40     1.4390   -1.0433   -4.5120 C.3      1 ZINC000096077667    0.1100
41     H41     2.4114   -0.5654   -4.3926 H        1 ZINC000096077667    0.1200
42     O42     1.6174   -2.3639   -5.0278 O.3      1 ZINC000096077667   -0.5400
43     C43     0.5983   -0.2392   -5.4699 C.2      1 ZINC000096077667    0.4900
44     O44     0.0657   -0.7838   -6.4136 O.2      1 ZINC000096077667   -0.5200
45     N45     0.4381    1.0852   -5.2778 N.am     1 ZINC000096077667   -0.7300
46     C46    -0.4558    1.8493   -6.1515 C.3      1 ZINC000096077667    0.1300
47     C47    -0.4567    3.3176   -5.7216 C.3      1 ZINC000096077667   -0.1500
48     C48    -1.3762    4.1036   -6.6203 C.2      1 ZINC000096077667    0.5200
49     O49    -1.9721    3.5444   -7.5165 O.2      1 ZINC000096077667   -0.5200
50     N50    -1.5363    5.4280   -6.4282 N.am     1 ZINC000096077667   -0.7300
51     C51    -2.4302    6.1921   -7.3019 C.3      1 ZINC000096077667    0.1400
52     C52    -2.4312    7.6604   -6.8720 C.3      1 ZINC000096077667   -0.1100
53     S53    -3.5356    8.6044   -7.9515 S.3      1 ZINC000096077667   -0.1400
54     C54    -3.3490   10.2104   -7.2509 C.2      1 ZINC000096077667    0.3900
55     O55    -2.6121   10.3761   -6.2971 O.2      1 ZINC000096077667   -0.4500
56     C56    -4.0842   11.3506   -7.8192 C.2      1 ZINC000096077667   -0.2100
57     C57    -4.9731   11.1088   -8.7583 C.2      1 ZINC000096077667   -0.0500
58     C58    -5.7873   12.1750   -9.4315 C.3      1 ZINC000096077667   -0.1000
59     C59    -5.7566   13.4620   -8.6046 C.3      1 ZINC000096077667   -0.1200
60     C60    -4.2972   13.7863   -8.2627 C.3      1 ZINC000096077667   -0.1100
61     C61    -3.7811   12.7220   -7.2898 C.3      1 ZINC000096077667    0.1600
62     H62    -4.2612   12.8554   -6.3204 H        1 ZINC000096077667    0.0700
63     O63    -2.3668   12.8619   -7.1412 O.3      1 ZINC000096077667   -0.5700
64     H64     1.6863    0.7030   -2.4999 H        1 ZINC000096077667    0.0500
65     H65     0.0378    0.9212   -3.1346 H        1 ZINC000096077667    0.0600
66     H66     0.2834    0.2122   -1.5206 H        1 ZINC000096077667    0.0800
67     H67     0.9777   -2.1586   -1.2847 H        1 ZINC000096077667    0.0800
68     H68     1.6055   -3.0348   -2.7011 H        1 ZINC000096077667    0.0600
69     H69     2.5044   -1.6465   -2.0432 H        1 ZINC000096077667    0.0500
70     H70    -1.2382   -0.9763   -4.0036 H        1 ZINC000096077667    0.0500
71     H71    -0.6471   -2.6413   -3.7875 H        1 ZINC000096077667    0.0500
72     H72    -6.4427   -0.4745    2.1607 H        1 ZINC000096077667    0.0600
73     H73    -6.1590   -2.0415    2.9558 H        1 ZINC000096077667    0.1000
74     H74    -5.7410    3.2217    2.5969 H        1 ZINC000096077667    0.2300
75     H75    -5.0395    7.8082    3.9460 H        1 ZINC000096077667    0.4200
76     H76    -4.4471    8.5939    5.3077 H        1 ZINC000096077667    0.4000
77     H77    -3.3148    5.3127    8.2653 H        1 ZINC000096077667    0.2000
78     H78    -5.7310    1.9531    7.3854 H        1 ZINC000096077667    0.3500
79     H79     0.7917   -2.8496   -5.1596 H        1 ZINC000096077667    0.3900
80     H80     0.9148    1.5324   -4.5611 H        1 ZINC000096077667    0.4000
81     H81    -0.1094    1.7727   -7.1821 H        1 ZINC000096077667    0.0700
82     H82    -1.4666    1.4483   -6.0772 H        1 ZINC000096077667    0.0900
83     H83    -0.8031    3.3942   -4.6909 H        1 ZINC000096077667    0.1100
84     H84     0.5542    3.7186   -5.7959 H        1 ZINC000096077667    0.1000
85     H85    -1.0597    5.8752   -5.7115 H        1 ZINC000096077667    0.4000
86     H86    -2.0838    6.1154   -8.3326 H        1 ZINC000096077667    0.0800
87     H87    -3.4411    5.7911   -7.2276 H        1 ZINC000096077667    0.0800
88     H88    -2.7776    7.7370   -5.8414 H        1 ZINC000096077667    0.1100
89     H89    -1.4203    8.0614   -6.9463 H        1 ZINC000096077667    0.1000
90     H90    -5.1255   10.0839   -9.0627 H        1 ZINC000096077667    0.1300
91     H91    -5.3768   12.3719  -10.4218 H        1 ZINC000096077667    0.0900
92     H92    -6.8178   11.8339   -9.5309 H        1 ZINC000096077667    0.0900
93     H93    -6.1875   14.2793   -9.1830 H        1 ZINC000096077667    0.0800
94     H94    -6.3253   13.3205   -7.6855 H        1 ZINC000096077667    0.0700
95     H95    -3.6972   13.7771   -9.1726 H        1 ZINC000096077667    0.0800
96     H96    -4.2406   14.7685   -7.7932 H        1 ZINC000096077667    0.0800
97     H97    -1.9863   12.3004   -6.4520 H        1 ZINC000096077667    0.3900
@<TRIPOS>BOND
1     1     2     1
2     1     64    1
3     1     65    1
4     1     66    1
5     2     3     1
6     2     4     1
7     2     40    1
8     3     67    1
9     3     68    1
10    3     69    1
11    4     5     1
12    4     70    1
13    4     71    1
14    5     6     1
15    6     7     ar
16    6     8     ar
17    6     9     1
18    9     10    1
19    10    11    ar
20    10    12    ar
21    10    13    1
22    13    14    1
23    14    15    1
24    14    72    1
25    14    73    1
26    15    16    1
27    15    33    1
28    15    17    1
29    17    18    1
30    18    19    1
31    18    20    1
32    18    30    1
33    20    29    1
34    20    21    1
35    21    22    2
36    21    74    1
37    22    23    1
38    23    29    ar
39    23    24    ar
40    24    25    1
41    24    26    ar
42    25    75    1
43    25    76    1
44    26    27    ar
45    27    28    ar
46    27    77    1
47    28    29    ar
48    30    31    1
49    30    32    1
50    30    33    1
51    32    78    1
52    33    34    1
53    33    35    1
54    35    36    1
55    36    37    ar
56    36    38    ar
57    36    39    ar
58    40    41    1
59    40    42    1
60    40    43    1
61    42    79    1
62    43    44    2
63    43    45    am
64    45    46    1
65    45    80    1
66    46    47    1
67    46    81    1
68    46    82    1
69    47    48    1
70    47    83    1
71    47    84    1
72    48    49    2
73    48    50    am
74    50    51    1
75    50    85    1
76    51    52    1
77    51    86    1
78    51    87    1
79    52    53    1
80    52    88    1
81    52    89    1
82    53    54    1
83    54    55    2
84    54    56    1
85    56    61    1
86    56    57    2
87    57    58    1
88    57    90    1
89    58    59    1
90    58    91    1
91    58    92    1
92    59    60    1
93    59    93    1
94    59    94    1
95    60    61    1
96    60    95    1
97    60    96    1
98    61    62    1
99    61    63    1
100   63    97    1
@<TRIPOS>SUBSTRUCTURE
1   ZINC000096077667 1     RESIDUE    1   A     ZIN   1
@<TRIPOS>MOLECULE
ZINC000096085218
99    101   1     0     0
SMALL
USER_CHARGES
@<TRIPOS>ATOM
1      C1    -17.8379  -10.4751   17.6349 C.3      1 ZINC000096085218   -0.1500
2      C2    -17.0421  -11.4658   16.7827 C.3      1 ZINC000096085218   -0.1200
3      C3    -15.5562  -11.1051   16.8353 C.3      1 ZINC000096085218   -0.1000
4      C4    -14.7724  -12.0809   15.9960 C.2      1 ZINC000096085218   -0.1100
5      C5    -13.9742  -11.6345   15.0248 C.2      1 ZINC000096085218   -0.1600
6      C6    -13.2130  -12.5822   14.2097 C.2      1 ZINC000096085218   -0.0100
7      C7    -12.4043  -12.1299   13.2258 C.2      1 ZINC000096085218   -0.2200
8      C8    -11.6435  -13.0770   12.4111 C.2      1 ZINC000096085218    0.3800
9      O9    -11.7388  -14.2729   12.6193 O.2      1 ZINC000096085218   -0.4500
10     S10   -10.5892  -12.4873   11.1283 S.3      1 ZINC000096085218   -0.1400
11     C11    -9.9464  -14.0593   10.5023 C.3      1 ZINC000096085218   -0.1100
12     C12    -8.9792  -13.7911    9.3476 C.3      1 ZINC000096085218    0.1400
13     N13    -8.4589  -15.0634    8.8408 N.am     1 ZINC000096085218   -0.7300
14     C14    -7.5835  -15.0733    7.8161 C.2      1 ZINC000096085218    0.5200
15     O15    -7.2265  -14.0289    7.3135 O.2      1 ZINC000096085218   -0.5300
16     C16    -7.0484  -16.3821    7.2949 C.3      1 ZINC000096085218   -0.1500
17     C17    -6.0811  -16.1140    6.1402 C.3      1 ZINC000096085218    0.1400
18     N18    -5.5609  -17.3863    5.6334 N.am     1 ZINC000096085218   -0.7400
19     C19    -4.6855  -17.3962    4.6087 C.2      1 ZINC000096085218    0.5000
20     O20    -4.3996  -16.3609    4.0454 O.2      1 ZINC000096085218   -0.5300
21     C21    -4.0618  -18.6936    4.1629 C.3      1 ZINC000096085218    0.1000
22     H22    -4.1392  -18.7804    3.0792 H        1 ZINC000096085218    0.1400
23     O23    -4.7457  -19.7870    4.7784 O.3      1 ZINC000096085218   -0.5500
24     C24    -2.5879  -18.7184    4.5727 C.3      1 ZINC000096085218   -0.0900
25     C25    -1.8255  -17.6403    3.7997 C.3      1 ZINC000096085218   -0.1400
26     C26    -2.4714  -18.4481    6.0741 C.3      1 ZINC000096085218   -0.1400
27     C27    -1.9930  -20.0914    4.2540 C.3      1 ZINC000096085218    0.1500
28     O28    -0.6164  -20.1145    4.6367 O.3      1 ZINC000096085218   -0.7700
29     P29     0.3254  -21.4063    4.4454 P.3      1 ZINC000096085218    2.2900
30     O30    -0.3241  -22.6244    5.1391 O.co2    1 ZINC000096085218   -1.1000
31     O31     0.4946  -21.7015    2.9384 O.co2    1 ZINC000096085218   -1.1100
32     O32     1.7676  -21.1209    5.1016 O.3      1 ZINC000096085218   -1.0900
33     P33     3.0120  -22.0544    5.5168 P.3      1 ZINC000096085218    2.2900
34     O34     2.4862  -23.3621    6.1495 O.co2    1 ZINC000096085218   -1.1000
35     O35     3.8462  -22.3893    4.2602 O.co2    1 ZINC000096085218   -1.1000
36     O36     3.9349  -21.2761    6.5819 O.3      1 ZINC000096085218   -0.7700
37     C37     5.0614  -21.8784    7.2223 C.3      1 ZINC000096085218    0.1400
38     C38     5.7109  -20.8670    8.1690 C.3      1 ZINC000096085218    0.0700
39     H39     5.9529  -19.9487    7.6340 H        1 ZINC000096085218    0.1000
40     O40     4.8342  -20.5848    9.2815 O.3      1 ZINC000096085218   -0.3500
41     C41     5.6910  -20.0541   10.3160 C.3      1 ZINC000096085218    0.2600
42     H42     5.9315  -19.0109   10.1115 H        1 ZINC000096085218    0.1200
43     N43     5.0475  -20.1808   11.6259 N.pl3    1 ZINC000096085218   -0.4500
44     C44     4.0783  -21.0775   11.9652 C.2      1 ZINC000096085218    0.2900
45     N45     3.7339  -20.9107   13.2090 N.2      1 ZINC000096085218   -0.4800
46     C46     4.4581  -19.8993   13.7457 C.ar     1 ZINC000096085218   -0.1000
47     C47     4.5172  -19.2888   15.0098 C.ar     1 ZINC000096085218    0.5000
48     N48     3.7032  -19.7193   16.0428 N.pl3    1 ZINC000096085218   -0.8300
49     N49     5.3735  -18.2884   15.1905 N.ar     1 ZINC000096085218   -0.6000
50     C50     6.1544  -17.8713   14.2108 C.ar     1 ZINC000096085218    0.3400
51     N51     6.1331  -18.4126   13.0109 N.ar     1 ZINC000096085218   -0.5400
52     C52     5.3139  -19.4228   12.7380 C.ar     1 ZINC000096085218    0.3000
53     C53     6.9675  -20.9221   10.2551 C.3      1 ZINC000096085218    0.0600
54     H54     6.9076  -21.7403   10.9727 H        1 ZINC000096085218    0.0700
55     O55     8.1274  -20.1249   10.5023 O.3      1 ZINC000096085218   -0.5000
56     C56     6.9825  -21.4681    8.8079 C.3      1 ZINC000096085218    0.1500
57     H57     6.9292  -22.5568    8.8098 H        1 ZINC000096085218    0.0800
58     O58     8.1537  -21.0266    8.1183 O.3      1 ZINC000096085218   -0.7200
59     P59     9.2286  -22.0399    7.4780 P.3      1 ZINC000096085218    2.1200
60     O60     9.7320  -23.0324    8.5807 O.co2    1 ZINC000096085218   -1.1900
61     O61     8.5570  -22.8477    6.3157 O.co2    1 ZINC000096085218   -1.1700
62     O62    10.4427  -21.2257    6.9145 O.co2    1 ZINC000096085218   -1.1700
63     H63   -18.8965  -10.7321   17.5975 H        1 ZINC000096085218    0.0600
64     H64   -17.4891  -10.5213   18.6666 H        1 ZINC000096085218    0.0500
65     H65   -17.6949   -9.4663   17.2479 H        1 ZINC000096085218    0.0500
66     H66   -17.1850  -12.4747   17.1698 H        1 ZINC000096085218    0.0600
67     H67   -17.3909  -11.4197   15.7511 H        1 ZINC000096085218    0.0600
68     H68   -15.4132  -10.0963   16.4483 H        1 ZINC000096085218    0.0700
69     H69   -15.2074  -11.1513   17.8670 H        1 ZINC000096085218    0.0800
70     H70   -14.8569  -13.1417   16.1807 H        1 ZINC000096085218    0.1200
71     H71   -13.8897  -10.5738   14.8402 H        1 ZINC000096085218    0.1200
72     H72   -13.2975  -13.6429   14.3944 H        1 ZINC000096085218    0.1300
73     H73   -12.3198  -11.0691   13.0411 H        1 ZINC000096085218    0.1400
74     H74    -9.4215  -14.5815   11.3022 H        1 ZINC000096085218    0.1000
75     H75   -10.7734  -14.6747   10.1481 H        1 ZINC000096085218    0.1000
76     H76    -9.5042  -13.2689    8.5477 H        1 ZINC000096085218    0.0800
77     H77    -8.1522  -13.1757    9.7017 H        1 ZINC000096085218    0.0800
78     H78    -8.7445  -15.8987    9.2429 H        1 ZINC000096085218    0.4000
79     H79    -6.5234  -16.9043    8.0948 H        1 ZINC000096085218    0.1100
80     H80    -7.8753  -16.9976    6.9407 H        1 ZINC000096085218    0.1000
81     H81    -6.6061  -15.5917    5.3403 H        1 ZINC000096085218    0.0700
82     H82    -5.2542  -15.4985    6.4943 H        1 ZINC000096085218    0.0800
83     H83    -5.8464  -18.2216    6.0354 H        1 ZINC000096085218    0.4000
84     H84    -4.7180  -19.7744    5.7449 H        1 ZINC000096085218    0.3700
85     H85    -2.1976  -16.6565    4.0857 H        1 ZINC000096085218    0.0600
86     H86    -0.7630  -17.7088    4.0330 H        1 ZINC000096085218    0.0800
87     H87    -1.9729  -17.7876    2.7298 H        1 ZINC000096085218    0.0500
88     H88    -3.0146  -19.2161    6.6248 H        1 ZINC000096085218    0.0500
89     H89    -1.4214  -18.4657    6.3660 H        1 ZINC000096085218    0.0800
90     H90    -2.8953  -17.4698    6.3012 H        1 ZINC000096085218    0.0400
91     H91    -2.5361  -20.8595    4.8047 H        1 ZINC000096085218    0.0600
92     H92    -2.0760  -20.2840    3.1844 H        1 ZINC000096085218    0.0500
93     H93     4.7339  -22.7493    7.7901 H        1 ZINC000096085218    0.0600
94     H94     5.7856  -22.1874    6.4685 H        1 ZINC000096085218    0.1000
95     H95     3.6578  -21.8168   11.2996 H        1 ZINC000096085218    0.2300
96     H96     3.0825  -20.4507   15.8986 H        1 ZINC000096085218    0.4200
97     H97     3.7533  -19.2897   16.9111 H        1 ZINC000096085218    0.4000
98     H98     6.8358  -17.0552   14.4008 H        1 ZINC000096085218    0.2000
99     H99     8.1400  -19.7091   11.3752 H        1 ZINC000096085218    0.3500
@<TRIPOS>BOND
1     1     2     1
2     1     63    1
3     1     64    1
4     1     65    1
5     2     3     1
6     2     66    1
7     2     67    1
8     3     4     1
9     3     68    1
10    3     69    1
11    4     5     2
12    4     70    1
13    5     6     1
14    5     71    1
15    6     7     2
16    6     72    1
17    7     8     1
18    7     73    1
19    8     9     2
20    8     10    1
21    10    11    1
22    11    12    1
23    11    74    1
24    11    75    1
25    12    13    1
26    12    76    1
27    12    77    1
28    13    14    am
29    13    78    1
30    14    15    2
31    14    16    1
32    16    17    1
33    16    79    1
34    16    80    1
35    17    18    1
36    17    81    1
37    17    82    1
38    18    19    am
39    18    83    1
40    19    20    2
41    19    21    1
42    21    22    1
43    21    23    1
44    21    24    1
45    23    84    1
46    24    25    1
47    24    26    1
48    24    27    1
49    25    85    1
50    25    86    1
51    25    87    1
52    26    88    1
53    26    89    1
54    26    90    1
55    27    28    1
56    27    91    1
57    27    92    1
58    28    29    1
59    29    30    ar
60    29    31    ar
61    29    32    1
62    32    33    1
63    33    34    ar
64    33    35    ar
65    33    36    1
66    36    37    1
67    37    38    1
68    37    93    1
69    37    94    1
70    38    39    1
71    38    56    1
72    38    40    1
73    40    41    1
74    41    42    1
75    41    43    1
76    41    53    1
77    43    52    1
78    43    44    1
79    44    45    2
80    44    95    1
81    45    46    1
82    46    52    ar
83    46    47    ar
84    47    48    1
85    47    49    ar
86    48    96    1
87    48    97    1
88    49    50    ar
89    50    51    ar
90    50    98    1
91    51    52    ar
92    53    54    1
93    53    55    1
94    53    56    1
95    55    99    1
96    56    57    1
97    56    58    1
98    58    59    1
99    59    60    ar
100   59    61    ar
101   59    62    ar
@<TRIPOS>SUBSTRUCTURE
1   ZINC000096085218 1     RESIDUE    1   A     ZIN   1
@<TRIPOS>MOLECULE
ZINC000096095484
95    98    1     0     0
SMALL
USER_CHARGES
@<TRIPOS>ATOM
1      C1     -0.0985    1.3509    0.2822 C.3      1 ZINC000096095484   -0.1500
2      C2     -0.1133   -0.1556    0.0155 C.3      1 ZINC000096095484   -0.1000
3      C3      0.5901   -0.8836    1.1627 C.3      1 ZINC000096095484   -0.1300
4      C4     -1.5606   -0.6414   -0.0855 C.3      1 ZINC000096095484    0.1400
5      O5     -2.2415   -0.3681    1.1407 O.3      1 ZINC000096095484   -0.7600
6      P6     -3.7866   -0.7464    1.3890 P.3      1 ZINC000096095484    2.2900
7      O7     -4.6557   -0.1184    0.2767 O.co2    1 ZINC000096095484   -1.1000
8      O8     -3.9509   -2.2825    1.3654 O.co2    1 ZINC000096095484   -1.1100
9      O9     -4.2548   -0.1785    2.8209 O.3      1 ZINC000096095484   -1.0900
10     P10    -5.6875    0.0547    3.5174 P.3      1 ZINC000096095484    2.2900
11     O11    -6.6844    0.6047    2.4731 O.co2    1 ZINC000096095484   -1.1000
12     O12    -6.2135   -1.2867    4.0750 O.co2    1 ZINC000096095484   -1.1000
13     O13    -5.5331    1.1127    4.7211 O.3      1 ZINC000096095484   -0.7700
14     C14    -6.6453    1.6085    5.4689 C.3      1 ZINC000096095484    0.1400
15     C15    -6.1483    2.5907    6.5316 C.3      1 ZINC000096095484    0.0700
16     H16    -5.3807    2.1241    7.1491 H        1 ZINC000096095484    0.1000
17     O17    -5.6334    3.7875    5.9084 O.3      1 ZINC000096095484   -0.3500
18     C18    -5.6655    4.7977    6.9401 C.3      1 ZINC000096095484    0.2600
19     H19    -4.8245    4.6707    7.6218 H        1 ZINC000096095484    0.1200
20     N20    -5.6403    6.1359    6.3445 N.pl3    1 ZINC000096095484   -0.4500
21     C21    -6.0404    6.4653    5.0836 C.2      1 ZINC000096095484    0.2900
22     N22    -5.8814    7.7417    4.8859 N.2      1 ZINC000096095484   -0.4800
23     C23    -5.3706    8.3110    6.0040 C.ar     1 ZINC000096095484   -0.1000
24     C24    -5.0011    9.6170    6.3675 C.ar     1 ZINC000096095484    0.5000
25     N25    -5.1372   10.6657    5.4748 N.pl3    1 ZINC000096095484   -0.8300
26     N26    -4.5183    9.8219    7.5887 N.ar     1 ZINC000096095484   -0.6000
27     C27    -4.3854    8.8274    8.4472 C.ar     1 ZINC000096095484    0.3400
28     N28    -4.7178    7.5886    8.1506 N.ar     1 ZINC000096095484   -0.5400
29     C29    -5.2153    7.2885    6.9554 C.ar     1 ZINC000096095484    0.2900
30     C30    -6.9997    4.5617    7.6821 C.3      1 ZINC000096095484    0.0600
31     H31    -7.7809    5.2049    7.2771 H        1 ZINC000096095484    0.0700
32     O32    -6.8406    4.7912    9.0836 O.3      1 ZINC000096095484   -0.5000
33     C33    -7.3241    3.0741    7.4091 C.3      1 ZINC000096095484    0.1500
34     H34    -8.2659    2.9817    6.8681 H        1 ZINC000096095484    0.0800
35     O35    -7.3778    2.3403    8.6341 O.3      1 ZINC000096095484   -0.7200
36     P36    -8.6839    1.5312    9.1151 P.3      1 ZINC000096095484    2.1200
37     O37    -9.9162    2.4982    9.1433 O.co2    1 ZINC000096095484   -1.1900
38     O38    -8.9658    0.3550    8.1193 O.co2    1 ZINC000096095484   -1.1700
39     O39    -8.4408    0.9530   10.5508 O.co2    1 ZINC000096095484   -1.1700
40     C40     0.6157   -0.4483   -1.2974 C.3      1 ZINC000096095484    0.1100
41     H41     1.6142   -0.0124   -1.2635 H        1 ZINC000096095484    0.1200
42     O42     0.7190   -1.8618   -1.4801 O.3      1 ZINC000096095484   -0.5400
43     C43    -0.1555    0.1515   -2.4448 C.2      1 ZINC000096095484    0.4900
44     O44    -0.7013   -0.5707   -3.2519 O.2      1 ZINC000096095484   -0.5200
45     N45    -0.2388    1.4905   -2.5740 N.am     1 ZINC000096095484   -0.7300
46     C46    -1.0675    2.0742   -3.6317 C.3      1 ZINC000096095484    0.1300
47     C47    -0.9878    3.6004   -3.5583 C.3      1 ZINC000096095484   -0.1500
48     C48    -1.8403    4.2008   -4.6463 C.2      1 ZINC000096095484    0.5200
49     O49    -2.4515    3.4791   -5.4056 O.2      1 ZINC000096095484   -0.5200
50     N50    -1.9236    5.5398   -4.7755 N.am     1 ZINC000096095484   -0.7300
51     C51    -2.7523    6.1235   -5.8332 C.3      1 ZINC000096095484    0.1400
52     C52    -2.6726    7.6497   -5.7598 C.3      1 ZINC000096095484   -0.1500
53     S53    -3.6965    8.3708   -7.0665 S.3      1 ZINC000096095484   -0.0600
54     C54    -3.4266   10.0842   -6.7562 C.2      1 ZINC000096095484    0.3800
55     O55    -2.7001   10.4299   -5.8443 O.2      1 ZINC000096095484   -0.4500
56     C56    -4.0831   11.1009   -7.6040 C.2      1 ZINC000096095484   -0.2600
57     C57    -3.8707   12.4070   -7.3678 C.2      1 ZINC000096095484    0.0200
58     C58    -4.5120   13.4968   -8.1748 C.3      1 ZINC000096095484   -0.1100
59     C59    -4.9437   12.9858   -9.5482 C.3      1 ZINC000096095484   -0.1200
60     C60    -5.8213   11.7392   -9.3684 C.3      1 ZINC000096095484   -0.1600
61     C61    -4.9632   10.6779   -8.7085 C.2      1 ZINC000096095484    0.3900
62     O62    -5.0056    9.5214   -9.0712 O.2      1 ZINC000096095484   -0.4200
63     H63     0.9273    1.7171    0.2410 H        1 ZINC000096095484    0.0500
64     H64    -0.6966    1.8597   -0.4738 H        1 ZINC000096095484    0.0600
65     H65    -0.5157    1.5492    1.2695 H        1 ZINC000096095484    0.0800
66     H66     0.0362   -0.7245    2.0879 H        1 ZINC000096095484    0.0800
67     H67     0.6331   -1.9505    0.9439 H        1 ZINC000096095484    0.0600
68     H68     1.6022   -0.4943    1.2737 H        1 ZINC000096095484    0.0500
69     H69    -2.0617   -0.1228   -0.9028 H        1 ZINC000096095484    0.0500
70     H70    -1.5712   -1.7147   -0.2755 H        1 ZINC000096095484    0.0500
71     H71    -7.3362    2.1185    4.7976 H        1 ZINC000096095484    0.0600
72     H72    -7.1569    0.7770    5.9537 H        1 ZINC000096095484    0.1000
73     H73    -6.4312    5.7695    4.3559 H        1 ZINC000096095484    0.2300
74     H74    -5.4912   10.5036    4.5864 H        1 ZINC000096095484    0.4200
75     H75    -4.8786   11.5629    5.7376 H        1 ZINC000096095484    0.4000
76     H76    -3.9887    9.0381    9.4294 H        1 ZINC000096095484    0.2000
77     H77    -6.5780    5.6946    9.3069 H        1 ZINC000096095484    0.3500
78     H78    -0.1335   -2.3166   -1.5195 H        1 ZINC000096095484    0.3900
79     H79     0.2500    2.0677   -1.9666 H        1 ZINC000096095484    0.4000
80     H80    -0.7064    1.7378   -4.6035 H        1 ZINC000096095484    0.0700
81     H81    -2.1021    1.7576   -3.4990 H        1 ZINC000096095484    0.0900
82     H82    -1.3490    3.9367   -2.5864 H        1 ZINC000096095484    0.1100
83     H83     0.0467    3.9170   -3.6909 H        1 ZINC000096095484    0.1000
84     H84    -1.4348    6.1170   -4.1681 H        1 ZINC000096095484    0.4000
85     H85    -2.3912    5.7871   -6.8050 H        1 ZINC000096095484    0.0800
86     H86    -3.7869    5.8069   -5.7005 H        1 ZINC000096095484    0.0800
87     H87    -3.0338    7.9860   -4.7879 H        1 ZINC000096095484    0.1000
88     H88    -1.6381    7.9663   -5.8924 H        1 ZINC000096095484    0.1000
89     H89    -3.2088   12.6843   -6.5607 H        1 ZINC000096095484    0.1400
90     H90    -5.3864   13.8693   -7.6411 H        1 ZINC000096095484    0.1100
91     H91    -3.7998   14.3118   -8.3044 H        1 ZINC000096095484    0.1000
92     H92    -5.5121   13.7604  -10.0630 H        1 ZINC000096095484    0.0800
93     H93    -4.0618   12.7290  -10.1351 H        1 ZINC000096095484    0.0700
94     H94    -6.6767   11.9762   -8.7357 H        1 ZINC000096095484    0.1100
95     H95    -6.1648   11.3845  -10.3401 H        1 ZINC000096095484    0.1000
@<TRIPOS>BOND
1     1     2     1
2     1     63    1
3     1     64    1
4     1     65    1
5     2     3     1
6     2     4     1
7     2     40    1
8     3     66    1
9     3     67    1
10    3     68    1
11    4     5     1
12    4     69    1
13    4     70    1
14    5     6     1
15    6     7     ar
16    6     8     ar
17    6     9     1
18    9     10    1
19    10    11    ar
20    10    12    ar
21    10    13    1
22    13    14    1
23    14    15    1
24    14    71    1
25    14    72    1
26    15    16    1
27    15    33    1
28    15    17    1
29    17    18    1
30    18    19    1
31    18    20    1
32    18    30    1
33    20    29    1
34    20    21    1
35    21    22    2
36    21    73    1
37    22    23    1
38    23    29    ar
39    23    24    ar
40    24    25    1
41    24    26    ar
42    25    74    1
43    25    75    1
44    26    27    ar
45    27    28    ar
46    27    76    1
47    28    29    ar
48    30    31    1
49    30    32    1
50    30    33    1
51    32    77    1
52    33    34    1
53    33    35    1
54    35    36    1
55    36    37    ar
56    36    38    ar
57    36    39    ar
58    40    41    1
59    40    42    1
60    40    43    1
61    42    78    1
62    43    44    2
63    43    45    am
64    45    46    1
65    45    79    1
66    46    47    1
67    46    80    1
68    46    81    1
69    47    48    1
70    47    82    1
71    47    83    1
72    48    49    2
73    48    50    am
74    50    51    1
75    50    84    1
76    51    52    1
77    51    85    1
78    51    86    1
79    52    53    1
80    52    87    1
81    52    88    1
82    53    54    1
83    54    55    2
84    54    56    1
85    56    61    1
86    56    57    2
87    57    58    1
88    57    89    1
89    58    59    1
90    58    90    1
91    58    91    1
92    59    60    1
93    59    92    1
94    59    93    1
95    60    61    1
96    60    94    1
97    60    95    1
98    61    62    2
@<TRIPOS>SUBSTRUCTURE
1   ZINC000096095484 1     RESIDUE    1   A     ZIN   1
@<TRIPOS>MOLECULE
ZINC000096014519
97    99    1     0     0
SMALL
USER_CHARGES
@<TRIPOS>ATOM
1      C1      0.7440    1.2686   -0.3292 C.3      1 ZINC000096014519   -0.1500
2      C2      0.7029   -0.2374   -0.5960 C.3      1 ZINC000096014519   -0.1000
3      C3      1.5623   -0.9628    0.4414 C.3      1 ZINC000096014519   -0.1300
4      C4     -0.7412   -0.7334   -0.4986 C.3      1 ZINC000096014519    0.1400
5      O5     -1.2490   -0.4675    0.8104 O.3      1 ZINC000096014519   -0.7600
6      P6     -2.7427   -0.8574    1.2675 P.3      1 ZINC000096014519    2.2900
7      O7     -3.7607   -0.2332    0.2871 O.co2    1 ZINC000096014519   -1.1000
8      O8     -2.8982   -2.3945    1.2620 O.co2    1 ZINC000096014519   -1.1100
9      O9     -3.0134   -0.2959    2.7519 O.3      1 ZINC000096014519   -1.0900
10     P10    -4.3383   -0.0744    3.6395 P.3      1 ZINC000096014519    2.2900
11     O11    -5.4731    0.4707    2.7438 O.co2    1 ZINC000096014519   -1.1000
12     O12    -4.7736   -1.4207    4.2600 O.co2    1 ZINC000096014519   -1.1000
13     O13    -4.0271    0.9821    4.8138 O.3      1 ZINC000096014519   -0.7700
14     C14    -5.0293    1.4684    5.7089 C.3      1 ZINC000096014519    0.1400
15     C15    -4.3976    2.4519    6.6961 C.3      1 ZINC000096014519    0.0700
16     H16    -3.5493    1.9895    7.2009 H        1 ZINC000096014519    0.1000
17     O17    -3.9814    3.6537    6.0118 O.3      1 ZINC000096014519   -0.3500
18     C18    -3.8782    4.6614    7.0412 C.3      1 ZINC000096014519    0.2600
19     H19    -2.9507    4.5389    7.6005 H        1 ZINC000096014519    0.1200
20     N20    -3.9443    6.0010    6.4519 N.pl3    1 ZINC000096014519   -0.4500
21     C21    -4.5161    6.3302    5.2591 C.2      1 ZINC000096014519    0.2900
22     N22    -4.3944    7.6081    5.0453 N.2      1 ZINC000096014519   -0.4800
23     C23    -3.7386    8.1787    6.0843 C.ar     1 ZINC000096014519   -0.1000
24     C24    -3.3316    9.4866    6.3976 C.ar     1 ZINC000096014519    0.5000
25     N25    -3.5962   10.5362    5.5353 N.pl3    1 ZINC000096014519   -0.8300
26     N26    -2.6869    9.6923    7.5415 N.ar     1 ZINC000096014519   -0.6000
27     C27    -2.4305    8.6970    8.3705 C.ar     1 ZINC000096014519    0.3400
28     N28    -2.7921    7.4565    8.1186 N.ar     1 ZINC000096014519   -0.5400
29     C29    -3.4471    7.1554    7.0022 C.ar     1 ZINC000096014519    0.2900
30     C30    -5.0961    4.4143    7.9589 C.3      1 ZINC000096014519    0.0600
31     H31    -5.9300    5.0527    7.6670 H        1 ZINC000096014519    0.0700
32     O32    -4.7474    4.6420    9.3258 O.3      1 ZINC000096014519   -0.5000
33     C33    -5.4449    2.9250    7.7284 C.3      1 ZINC000096014519    0.1500
34     H34    -6.4514    2.8270    7.3217 H        1 ZINC000096014519    0.0800
35     O35    -5.3247    2.1883    8.9469 O.3      1 ZINC000096014519   -0.7200
36     P36    -6.5468    1.3688    9.6004 P.3      1 ZINC000096014519    2.1200
37     O37    -7.7700    2.3269    9.8007 O.co2    1 ZINC000096014519   -1.1900
38     O38    -6.9548    0.1928    8.6492 O.co2    1 ZINC000096014519   -1.1700
39     O39    -6.1047    0.7894   10.9872 O.co2    1 ZINC000096014519   -1.1700
40     C40     1.2465   -0.5221   -1.9975 C.3      1 ZINC000096014519    0.1100
41     H41     2.2367   -0.0782   -2.1002 H        1 ZINC000096014519    0.1200
42     O42     1.3347   -1.9344   -2.1964 O.3      1 ZINC000096014519   -0.5400
43     C43     0.3199    0.0732   -3.0262 C.2      1 ZINC000096014519    0.4900
44     O44    -0.3259   -0.6521   -3.7526 O.2      1 ZINC000096014519   -0.5300
45     N45     0.2090    1.4117   -3.1389 N.am     1 ZINC000096014519   -0.7300
46     C46    -0.7619    1.9903   -4.0710 C.3      1 ZINC000096014519    0.1300
47     C47    -0.6850    3.5170   -4.0050 C.3      1 ZINC000096014519   -0.1500
48     C48    -1.6837    4.1122   -4.9638 C.2      1 ZINC000096014519    0.5200
49     O49    -2.3876    3.3868   -5.6340 O.2      1 ZINC000096014519   -0.5300
50     N50    -1.7946    5.4506   -5.0765 N.am     1 ZINC000096014519   -0.7300
51     C51    -2.7655    6.0292   -6.0086 C.3      1 ZINC000096014519    0.1400
52     C52    -2.6886    7.5559   -5.9426 C.3      1 ZINC000096014519   -0.1200
53     S53    -3.8882    8.2708   -7.0942 S.3      1 ZINC000096014519   -0.1300
54     C54    -3.6003    9.9371   -6.8268 C.2      1 ZINC000096014519    0.3400
55     O55    -2.7601   10.2865   -6.0243 O.2      1 ZINC000096014519   -0.4400
56     C56    -4.3905   10.9699   -7.5883 C.3      1 ZINC000096014519   -0.1800
57     C57    -3.8339   12.3627   -7.2862 C.3      1 ZINC000096014519    0.1700
58     C58    -4.6209   13.4091   -8.0777 C.3      1 ZINC000096014519   -0.1400
59     O59    -3.9562   12.6317   -5.8881 O.3      1 ZINC000096014519   -0.5400
60     C60    -2.3592   12.4210   -7.6896 C.3      1 ZINC000096014519   -0.2200
61     C61    -1.8108   13.7928   -7.3921 C.2      1 ZINC000096014519    0.5000
62     O62    -2.5327   14.6449   -6.9028 O.co2    1 ZINC000096014519   -0.6800
63     O63    -0.6454   14.0506   -7.6408 O.co2    1 ZINC000096014519   -0.7200
64     H64     1.7498    1.6438   -0.5182 H        1 ZINC000096014519    0.0500
65     H65     0.0379    1.7738   -0.9883 H        1 ZINC000096014519    0.0600
66     H66     0.4735    1.4612    0.7090 H        1 ZINC000096014519    0.0800
67     H67     1.1400   -0.8091    1.4345 H        1 ZINC000096014519    0.0800
68     H68     1.5815   -2.0290    0.2158 H        1 ZINC000096014519    0.0600
69     H69     2.5775   -0.5670    0.4130 H        1 ZINC000096014519    0.0500
70     H70    -1.3535   -0.2166   -1.2377 H        1 ZINC000096014519    0.0500
71     H71    -0.7705   -1.8063   -0.6887 H        1 ZINC000096014519    0.0500
72     H72    -5.8094    1.9749    5.1405 H        1 ZINC000096014519    0.0600
73     H73    -5.4638    0.6322    6.2568 H        1 ZINC000096014519    0.1000
74     H74    -4.9984    5.6332    4.5898 H        1 ZINC000096014519    0.2300
75     H75    -4.0678   10.3734    4.7035 H        1 ZINC000096014519    0.4200
76     H76    -3.3100   11.4346    5.7628 H        1 ZINC000096014519    0.4000
77     H77    -1.9040    8.9085    9.2895 H        1 ZINC000096014519    0.2000
78     H78    -4.4627    5.5468    9.5137 H        1 ZINC000096014519    0.3500
79     H79     0.4885   -2.3960   -2.1194 H        1 ZINC000096014519    0.3900
80     H80     0.7720    1.9919   -2.6029 H        1 ZINC000096014519    0.4000
81     H81    -0.5350    1.6586   -5.0842 H        1 ZINC000096014519    0.0700
82     H82    -1.7658    1.6649   -3.7984 H        1 ZINC000096014519    0.0900
83     H83    -0.9118    3.8487   -2.9917 H        1 ZINC000096014519    0.1100
84     H84     0.3189    3.8423   -4.2776 H        1 ZINC000096014519    0.1000
85     H85    -1.2316    6.0308   -4.5405 H        1 ZINC000096014519    0.4000
86     H86    -2.5387    5.6975   -7.0218 H        1 ZINC000096014519    0.0800
87     H87    -3.7694    5.7039   -5.7360 H        1 ZINC000096014519    0.0800
88     H88    -2.9155    7.8876   -4.9293 H        1 ZINC000096014519    0.1100
89     H89    -1.6847    7.8813   -6.2152 H        1 ZINC000096014519    0.1000
90     H90    -4.3127   10.7715   -8.6572 H        1 ZINC000096014519    0.1000
91     H91    -5.4365   10.9232   -7.2853 H        1 ZINC000096014519    0.1100
92     H92    -5.6694   13.3755   -7.7819 H        1 ZINC000096014519    0.0400
93     H93    -4.2168   14.4002   -7.8715 H        1 ZINC000096014519    0.1100
94     H94    -4.5371   13.1972   -9.1436 H        1 ZINC000096014519    0.0500
95     H95    -3.4812   12.0060   -5.3242 H        1 ZINC000096014519    0.3700
96     H96    -1.7985   11.6755   -7.1258 H        1 ZINC000096014519    0.0700
97     H97    -2.2658   12.2158   -8.7561 H        1 ZINC000096014519    0.0600
@<TRIPOS>BOND
1     1     2     1
2     1     64    1
3     1     65    1
4     1     66    1
5     2     3     1
6     2     4     1
7     2     40    1
8     3     67    1
9     3     68    1
10    3     69    1
11    4     5     1
12    4     70    1
13    4     71    1
14    5     6     1
15    6     7     ar
16    6     8     ar
17    6     9     1
18    9     10    1
19    10    11    ar
20    10    12    ar
21    10    13    1
22    13    14    1
23    14    15    1
24    14    72    1
25    14    73    1
26    15    16    1
27    15    33    1
28    15    17    1
29    17    18    1
30    18    19    1
31    18    20    1
32    18    30    1
33    20    29    1
34    20    21    1
35    21    22    2
36    21    74    1
37    22    23    1
38    23    29    ar
39    23    24    ar
40    24    25    1
41    24    26    ar
42    25    75    1
43    25    76    1
44    26    27    ar
45    27    28    ar
46    27    77    1
47    28    29    ar
48    30    31    1
49    30    32    1
50    30    33    1
51    32    78    1
52    33    34    1
53    33    35    1
54    35    36    1
55    36    37    ar
56    36    38    ar
57    36    39    ar
58    40    41    1
59    40    42    1
60    40    43    1
61    42    79    1
62    43    44    2
63    43    45    am
64    45    46    1
65    45    80    1
66    46    47    1
67    46    81    1
68    46    82    1
69    47    48    1
70    47    83    1
71    47    84    1
72    48    49    2
73    48    50    am
74    50    51    1
75    50    85    1
76    51    52    1
77    51    86    1
78    51    87    1
79    52    53    1
80    52    88    1
81    52    89    1
82    53    54    1
83    54    55    2
84    54    56    1
85    56    57    1
86    56    90    1
87    56    91    1
88    57    58    1
89    57    59    1
90    57    60    1
91    58    92    1
92    58    93    1
93    58    94    1
94    59    95    1
95    60    61    1
96    60    96    1
97    60    97    1
98    61    62    ar
99    61    63    ar
@<TRIPOS>SUBSTRUCTURE
1   ZINC000096014519 1     RESIDUE    1   A     ZIN   1
@<TRIPOS>MOLECULE
ZINC000096014539
98    100   1     0     0
SMALL
USER_CHARGES
@<TRIPOS>ATOM
1      C1     11.9470   -9.0527  -19.4457 C.3      1 ZINC000096014539   -0.1500
2      C2     11.1311  -10.0355  -18.6033 C.3      1 ZINC000096014539   -0.1200
3      C3     10.3970   -9.2731  -17.4985 C.3      1 ZINC000096014539   -0.1500
4      C4      9.5811  -10.2558  -16.6562 C.3      1 ZINC000096014539    0.1200
5      H5     10.2354  -11.0425  -16.2805 H        1 ZINC000096014539    0.1000
6      O6      8.5536  -10.8355  -17.4626 O.3      1 ZINC000096014539   -0.5500
7      C7      8.9471   -9.5137  -15.4780 C.3      1 ZINC000096014539   -0.1800
8      C8      8.2459  -10.5010  -14.5811 C.2      1 ZINC000096014539    0.3300
9      O9      8.2525  -11.6825  -14.8572 O.2      1 ZINC000096014539   -0.4300
10     S10     7.4398   -9.9556  -13.1727 S.3      1 ZINC000096014539   -0.1300
11     C11     6.8186  -11.5319  -12.5358 C.3      1 ZINC000096014539   -0.1200
12     C12     6.0412  -11.2879  -11.2408 C.3      1 ZINC000096014539    0.1400
13     N13     5.5384  -12.5637  -10.7253 N.am     1 ZINC000096014539   -0.7300
14     C14     4.8197  -12.5937   -9.5855 C.2      1 ZINC000096014539    0.5200
15     O15     4.5893  -11.5646   -8.9866 O.2      1 ZINC000096014539   -0.5300
16     C16     4.3025  -13.9061   -9.0552 C.3      1 ZINC000096014539   -0.1500
17     C17     3.5251  -13.6621   -7.7602 C.3      1 ZINC000096014539    0.1400
18     N18     3.0223  -14.9379   -7.2447 N.am     1 ZINC000096014539   -0.7400
19     C19     2.3036  -14.9679   -6.1049 C.2      1 ZINC000096014539    0.5000
20     O20     2.1518  -13.9541   -5.4569 O.2      1 ZINC000096014539   -0.5300
21     C21     1.6887  -16.2613   -5.6358 C.3      1 ZINC000096014539    0.1000
22     H22     1.9165  -16.4101   -4.5803 H        1 ZINC000096014539    0.1400
23     O23     2.2237  -17.3465   -6.3961 O.3      1 ZINC000096014539   -0.5500
24     C24     0.1718  -16.2036   -5.8269 C.3      1 ZINC000096014539   -0.0900
25     C25    -0.4189  -15.1392   -4.9001 C.3      1 ZINC000096014539   -0.1400
26     C26    -0.1459  -15.8474   -7.2805 C.3      1 ZINC000096014539   -0.1400
27     C27    -0.4367  -17.5667   -5.4911 C.3      1 ZINC000096014539    0.1500
28     O28    -1.8535  -17.5128   -5.6696 O.3      1 ZINC000096014539   -0.7700
29     P29    -2.8192  -18.7737   -5.4052 P.3      1 ZINC000096014539    2.2900
30     O30    -2.3354  -19.9777   -6.2439 O.co2    1 ZINC000096014539   -1.1000
31     O31    -2.7843  -19.1435   -3.9055 O.co2    1 ZINC000096014539   -1.1100
32     O32    -4.3252  -18.3945   -5.8296 O.3      1 ZINC000096014539   -1.0900
33     P33    -5.6598  -19.2525   -6.1031 P.3      1 ZINC000096014539    2.2900
34     O34    -5.2939  -20.5442   -6.8678 O.co2    1 ZINC000096014539   -1.1000
35     O35    -6.3202  -19.6212   -4.7559 O.co2    1 ZINC000096014539   -1.1000
36     O36    -6.6875  -18.3804   -6.9837 O.3      1 ZINC000096014539   -0.7700
37     C37    -7.9220  -18.9006   -7.4810 C.3      1 ZINC000096014539    0.1400
38     C38    -8.6512  -17.8136   -8.2732 C.3      1 ZINC000096014539    0.0700
39     H39    -8.7693  -16.9166   -7.6652 H        1 ZINC000096014539    0.1000
40     O40    -7.9307  -17.5070   -9.4868 O.3      1 ZINC000096014539   -0.3500
41     C41    -8.9006  -16.8864  -10.3586 C.3      1 ZINC000096014539    0.2600
42     H42    -9.0586  -15.8469  -10.0714 H        1 ZINC000096014539    0.1200
43     N43    -8.4586  -16.9676  -11.7530 N.pl3    1 ZINC000096014539   -0.4500
44     C44    -7.5925  -17.8832  -12.2726 C.2      1 ZINC000096014539    0.2900
45     N45    -7.4226  -17.6630  -13.5439 N.2      1 ZINC000096014539   -0.4800
46     C46    -8.1668  -16.5953  -13.9200 C.ar     1 ZINC000096014539   -0.1000
47     C47    -8.3773  -15.9149  -15.1312 C.ar     1 ZINC000096014539    0.5000
48     N48    -7.7417  -16.3213  -16.2914 N.pl3    1 ZINC000096014539   -0.8300
49     N49    -9.2015  -14.8722  -15.1369 N.ar     1 ZINC000096014539   -0.6000
50     C50    -9.8126  -14.4776  -14.0349 C.ar     1 ZINC000096014539    0.3400
51     N51    -9.6454  -15.0838  -12.8783 N.ar     1 ZINC000096014539   -0.5400
52     C52    -8.8451  -16.1399  -12.7767 C.ar     1 ZINC000096014539    0.2900
53     C53   -10.1954  -17.7037  -10.1539 C.3      1 ZINC000096014539    0.0600
54     H54   -10.2786  -18.4834  -10.9111 H        1 ZINC000096014539    0.0700
55     O55   -11.3390  -16.8476  -10.1908 O.3      1 ZINC000096014539   -0.5000
56     C56   -10.0288  -18.3267   -8.7479 C.3      1 ZINC000096014539    0.1500
57     H57   -10.0289  -19.4149   -8.8099 H        1 ZINC000096014539    0.0800
58     O58   -11.0662  -17.8761   -7.8745 O.3      1 ZINC000096014539   -0.7200
59     P59   -12.0856  -18.8782   -7.1337 P.3      1 ZINC000096014539    2.1200
60     O60   -12.7893  -19.7878   -8.1975 O.co2    1 ZINC000096014539   -1.1900
61     O61   -11.2937  -19.7747   -6.1219 O.co2    1 ZINC000096014539   -1.1700
62     O62   -13.1655  -18.0471   -6.3607 O.co2    1 ZINC000096014539   -1.1700
63     H63    11.2793   -8.3170  -19.8939 H        1 ZINC000096014539    0.0500
64     H64    12.6729   -8.5452  -18.8104 H        1 ZINC000096014539    0.0500
65     H65    12.4700   -9.5959  -20.2327 H        1 ZINC000096014539    0.0500
66     H66    10.4053  -10.5430  -19.2386 H        1 ZINC000096014539    0.0700
67     H67    11.7989  -10.7712  -18.1551 H        1 ZINC000096014539    0.0600
68     H68    11.1228   -8.7655  -16.8633 H        1 ZINC000096014539    0.0700
69     H69     9.7292   -8.5373  -17.9468 H        1 ZINC000096014539    0.0700
70     H70     7.9330  -10.1921  -17.8313 H        1 ZINC000096014539    0.3700
71     H71     9.7237   -8.9977  -14.9134 H        1 ZINC000096014539    0.1100
72     H72     8.2261   -8.7868  -15.8521 H        1 ZINC000096014539    0.1100
73     H73     6.1597  -11.9879  -13.2746 H        1 ZINC000096014539    0.1000
74     H74     7.6572  -12.1989  -12.3359 H        1 ZINC000096014539    0.1000
75     H75     6.7001  -10.8318  -10.5019 H        1 ZINC000096014539    0.0800
76     H76     5.2026  -10.6209  -11.4406 H        1 ZINC000096014539    0.0800
77     H77     5.7227  -13.3868  -11.2042 H        1 ZINC000096014539    0.4000
78     H78     3.6436  -14.3622   -9.7941 H        1 ZINC000096014539    0.1100
79     H79     5.1411  -14.5731   -8.8554 H        1 ZINC000096014539    0.1000
80     H80     4.1840  -13.2060   -7.0213 H        1 ZINC000096014539    0.0700
81     H81     2.6865  -12.9951   -7.9600 H        1 ZINC000096014539    0.0800
82     H82     3.2066  -15.7610   -7.7237 H        1 ZINC000096014539    0.4000
83     H83     2.0582  -17.2801   -7.3465 H        1 ZINC000096014539    0.3700
84     H84    -0.0448  -14.1572   -5.1897 H        1 ZINC000096014539    0.0600
85     H85    -1.5060  -15.1515   -4.9789 H        1 ZINC000096014539    0.0800
86     H86    -0.1268  -15.3504   -3.8715 H        1 ZINC000096014539    0.0500
87     H87     0.2749  -16.6058   -7.9407 H        1 ZINC000096014539    0.0500
88     H88    -1.2266  -15.8063   -7.4167 H        1 ZINC000096014539    0.0800
89     H89     0.2876  -14.8764   -7.5197 H        1 ZINC000096014539    0.0400
90     H90    -0.0159  -18.3250   -6.1513 H        1 ZINC000096014539    0.0600
91     H91    -0.2104  -17.8204   -4.4555 H        1 ZINC000096014539    0.0500
92     H92    -7.7217  -19.7518   -8.1317 H        1 ZINC000096014539    0.0600
93     H93    -8.5444  -19.2205   -6.6454 H        1 ZINC000096014539    0.1000
94     H94    -7.1169  -18.6742  -11.7118 H        1 ZINC000096014539    0.2300
95     H95    -7.1427  -17.0840  -16.2746 H        1 ZINC000096014539    0.4200
96     H96    -7.8952  -15.8434  -17.1214 H        1 ZINC000096014539    0.4000
97     H97   -10.4741  -13.6253  -14.0841 H        1 ZINC000096014539    0.2000
98     H98   -11.4568  -16.3847  -11.0316 H        1 ZINC000096014539    0.3500
@<TRIPOS>BOND
1     1     2     1
2     1     63    1
3     1     64    1
4     1     65    1
5     2     3     1
6     2     66    1
7     2     67    1
8     3     4     1
9     3     68    1
10    3     69    1
11    4     5     1
12    4     6     1
13    4     7     1
14    6     70    1
15    7     8     1
16    7     71    1
17    7     72    1
18    8     9     2
19    8     10    1
20    10    11    1
21    11    12    1
22    11    73    1
23    11    74    1
24    12    13    1
25    12    75    1
26    12    76    1
27    13    14    am
28    13    77    1
29    14    15    2
30    14    16    1
31    16    17    1
32    16    78    1
33    16    79    1
34    17    18    1
35    17    80    1
36    17    81    1
37    18    19    am
38    18    82    1
39    19    20    2
40    19    21    1
41    21    22    1
42    21    23    1
43    21    24    1
44    23    83    1
45    24    25    1
46    24    26    1
47    24    27    1
48    25    84    1
49    25    85    1
50    25    86    1
51    26    87    1
52    26    88    1
53    26    89    1
54    27    28    1
55    27    90    1
56    27    91    1
57    28    29    1
58    29    30    ar
59    29    31    ar
60    29    32    1
61    32    33    1
62    33    34    ar
63    33    35    ar
64    33    36    1
65    36    37    1
66    37    38    1
67    37    92    1
68    37    93    1
69    38    39    1
70    38    56    1
71    38    40    1
72    40    41    1
73    41    42    1
74    41    43    1
75    41    53    1
76    43    52    1
77    43    44    1
78    44    45    2
79    44    94    1
80    45    46    1
81    46    52    ar
82    46    47    ar
83    47    48    1
84    47    49    ar
85    48    95    1
86    48    96    1
87    49    50    ar
88    50    51    ar
89    50    97    1
90    51    52    ar
91    53    54    1
92    53    55    1
93    53    56    1
94    55    98    1
95    56    57    1
96    56    58    1
97    58    59    1
98    59    60    ar
99    59    61    ar
100   59    62    ar
@<TRIPOS>SUBSTRUCTURE
1   ZINC000096014539 1     RESIDUE    1   A     ZIN   1
@<TRIPOS>MOLECULE
ZINC000096014547
101   103   1     0     0
SMALL
USER_CHARGES
@<TRIPOS>ATOM
1      C1     23.4974   -9.6280    8.9412 C.3      1 ZINC000096014547   -0.1500
2      C2     22.3867  -10.6478    8.6816 C.3      1 ZINC000096014547   -0.1300
3      C3     21.6807  -10.3094    7.3671 C.3      1 ZINC000096014547   -0.1200
4      C4     20.5700  -11.3292    7.1075 C.3      1 ZINC000096014547   -0.1200
5      C5     19.8640  -10.9907    5.7930 C.3      1 ZINC000096014547   -0.1000
6      C6     18.7700  -11.9951    5.5373 C.2      1 ZINC000096014547   -0.0500
7      C7     17.5230  -11.5820    5.3306 C.2      1 ZINC000096014547   -0.2200
8      C8     16.4553  -12.5624    5.0810 C.2      1 ZINC000096014547    0.3800
9      O9     16.7130  -13.7513    5.0636 O.2      1 ZINC000096014547   -0.4500
10     S10    14.8030  -12.0150    4.8071 S.3      1 ZINC000096014547   -0.1400
11     C11    13.9792  -13.6090    4.5689 C.3      1 ZINC000096014547   -0.1100
12     C12    12.4893  -13.3791    4.3077 C.3      1 ZINC000096014547    0.1400
13     N13    11.8225  -14.6692    4.1149 N.am     1 ZINC000096014547   -0.7300
14     C14    10.4981  -14.7132    3.8691 C.2      1 ZINC000096014547    0.5200
15     O15     9.8583  -13.6848    3.8075 O.2      1 ZINC000096014547   -0.5300
16     C16     9.8122  -16.0404    3.6708 C.3      1 ZINC000096014547   -0.1500
17     C17     8.3223  -15.8104    3.4095 C.3      1 ZINC000096014547    0.1400
18     N18     7.6556  -17.1006    3.2167 N.am     1 ZINC000096014547   -0.7400
19     C19     6.3311  -17.1446    2.9709 C.2      1 ZINC000096014547    0.5000
20     O20     5.6745  -16.1253    3.0013 O.2      1 ZINC000096014547   -0.5300
21     C21     5.6661  -18.4603    2.6582 C.3      1 ZINC000096014547    0.1000
22     H22     4.7685  -18.5675    3.2673 H        1 ZINC000096014547    0.1400
23     O23     6.5682  -19.5304    2.9467 O.3      1 ZINC000096014547   -0.5500
24     C24     5.2850  -18.4997    1.1770 C.3      1 ZINC000096014547   -0.0900
25     C25     4.2077  -17.4494    0.8994 C.3      1 ZINC000096014547   -0.1400
26     C26     6.5199  -18.2013    0.3245 C.3      1 ZINC000096014547   -0.1400
27     C27     4.7462  -19.8880    0.8258 C.3      1 ZINC000096014547    0.1500
28     O28     4.3902  -19.9249   -0.5576 O.3      1 ZINC000096014547   -0.7700
29     P29     3.7863  -21.2347   -1.2731 P.3      1 ZINC000096014547    2.2900
30     O30     4.7421  -22.4285   -1.0531 O.co2    1 ZINC000096014547   -1.1000
31     O31     2.4043  -21.5627   -0.6651 O.co2    1 ZINC000096014547   -1.1100
32     O32     3.6266  -20.9588   -2.8512 O.3      1 ZINC000096014547   -1.0900
33     P33     3.3877  -21.9030   -4.1331 P.3      1 ZINC000096014547    2.2900
34     O34     4.2311  -23.1895   -3.9895 O.co2    1 ZINC000096014547   -1.1000
35     O35     1.8912  -22.2760   -4.2262 O.co2    1 ZINC000096014547   -1.1000
36     O36     3.8292  -21.1181   -5.4676 O.3      1 ZINC000096014547   -0.7700
37     C37     3.8358  -21.7249   -6.7614 C.3      1 ZINC000096014547    0.1400
38     C38     4.3055  -20.7051   -7.8007 C.3      1 ZINC000096014547    0.0700
39     H39     3.6983  -19.8015   -7.7459 H        1 ZINC000096014547    0.1000
40     O40     5.6997  -20.3870   -7.5986 O.3      1 ZINC000096014547   -0.3500
41     C41     6.1539  -19.8492   -8.8597 C.3      1 ZINC000096014547    0.2600
42     H42     5.8305  -18.8141   -8.9693 H        1 ZINC000096014547    0.1200
43     N43     7.6129  -19.9397   -8.9568 N.pl3    1 ZINC000096014547   -0.4500
44     C44     8.4134  -20.8142   -8.2839 C.2      1 ZINC000096014547    0.2900
45     N45     9.6583  -20.6172   -8.6081 N.2      1 ZINC000096014547   -0.4800
46     C46     9.7357  -19.6067   -9.5071 C.ar     1 ZINC000096014547   -0.1000
47     C47    10.7853  -18.9720  -10.1925 C.ar     1 ZINC000096014547    0.5000
48     N48    12.0973  -19.3691  -10.0025 N.pl3    1 ZINC000096014547   -0.8300
49     N49    10.4887  -17.9817  -11.0279 N.ar     1 ZINC000096014547   -0.6000
50     C50     9.2398  -17.5964  -11.2158 C.ar     1 ZINC000096014547    0.3400
51     N51     8.2252  -18.1612  -10.5956 N.ar     1 ZINC000096014547   -0.5400
52     C52     8.4236  -19.1638   -9.7462 C.ar     1 ZINC000096014547    0.2900
53     C53     5.4851  -20.7380   -9.9316 C.3      1 ZINC000096014547    0.0600
54     H54     6.1569  -21.5407  -10.2357 H        1 ZINC000096014547    0.0700
55     O55     5.0995  -19.9542  -11.0626 O.3      1 ZINC000096014547   -0.5000
56     C56     4.2383  -21.3130   -9.2192 C.3      1 ZINC000096014547    0.1500
57     H57     4.2939  -22.4005   -9.1703 H        1 ZINC000096014547    0.0800
58     O58     3.0449  -20.9037   -9.8903 O.3      1 ZINC000096014547   -0.7200
59     P59     1.9788  -21.9462  -10.4975 P.3      1 ZINC000096014547    2.1200
60     O60     2.7069  -22.9242  -11.4814 O.co2    1 ZINC000096014547   -1.1900
61     O61     1.3284  -22.7665   -9.3320 O.co2    1 ZINC000096014547   -1.1700
62     O62     0.8638  -21.1625  -11.2701 O.co2    1 ZINC000096014547   -1.1700
63     H63    23.0655   -8.6294    9.0074 H        1 ZINC000096014547    0.0500
64     H64    24.0004   -9.8692    9.8776 H        1 ZINC000096014547    0.0500
65     H65    24.2175   -9.6590    8.1235 H        1 ZINC000096014547    0.0500
66     H66    22.8186  -11.6464    8.6153 H        1 ZINC000096014547    0.0600
67     H67    21.6667  -10.6169    9.4992 H        1 ZINC000096014547    0.0600
68     H68    21.2488   -9.3108    7.4333 H        1 ZINC000096014547    0.0600
69     H69    22.4008  -10.3403    6.5494 H        1 ZINC000096014547    0.0600
70     H70    21.0019  -12.3277    7.0412 H        1 ZINC000096014547    0.0700
71     H71    19.8500  -11.2982    7.9251 H        1 ZINC000096014547    0.0700
72     H72    19.4321   -9.9921    5.8592 H        1 ZINC000096014547    0.0800
73     H73    20.5841  -11.0216    4.9753 H        1 ZINC000096014547    0.0900
74     H74    18.9988  -13.0505    5.5218 H        1 ZINC000096014547    0.1300
75     H75    17.2942  -10.5266    5.3460 H        1 ZINC000096014547    0.1400
76     H76    14.4225  -14.1232    3.7162 H        1 ZINC000096014547    0.1000
77     H77    14.1012  -14.2185    5.4644 H        1 ZINC000096014547    0.1000
78     H78    12.0460  -12.8648    5.1604 H        1 ZINC000096014547    0.0800
79     H79    12.3673  -12.7696    3.4122 H        1 ZINC000096014547    0.0800
80     H80    12.3343  -15.4918    4.1641 H        1 ZINC000096014547    0.4000
81     H81    10.2555  -16.5546    2.8180 H        1 ZINC000096014547    0.1100
82     H82     9.9343  -16.6498    4.5662 H        1 ZINC000096014547    0.1000
83     H83     7.8790  -15.2962    4.2622 H        1 ZINC000096014547    0.0700
84     H84     8.2003  -15.2010    2.5141 H        1 ZINC000096014547    0.0800
85     H85     8.1673  -17.9231    3.2659 H        1 ZINC000096014547    0.4000
86     H86     7.3908  -19.4988    2.4394 H        1 ZINC000096014547    0.3700
87     H87     4.6165  -16.4544    1.0752 H        1 ZINC000096014547    0.0600
88     H88     3.8804  -17.5298   -0.1372 H        1 ZINC000096014547    0.0800
89     H89     3.3586  -17.6157    1.5624 H        1 ZINC000096014547    0.0500
90     H90     7.2874  -18.9496    0.5222 H        1 ZINC000096014547    0.0500
91     H91     6.2484  -18.2295   -0.7308 H        1 ZINC000096014547    0.0800
92     H92     6.9037  -17.2123    0.5746 H        1 ZINC000096014547    0.0400
93     H93     5.5137  -20.6363    1.0236 H        1 ZINC000096014547    0.0600
94     H94     3.8664  -20.1006    1.4332 H        1 ZINC000096014547    0.0500
95     H95     4.5129  -22.5791   -6.7586 H        1 ZINC000096014547    0.0600
96     H96     2.8290  -22.0603   -7.0105 H        1 ZINC000096014547    0.1000
97     H97     8.0659  -21.5600   -7.5844 H        1 ZINC000096014547    0.2300
98     H98    12.3010  -20.0934   -9.3903 H        1 ZINC000096014547    0.4200
99     H99    12.8132  -18.9231  -10.4815 H        1 ZINC000096014547    0.4000
100    H100    9.0433  -16.7875  -11.9038 H        1 ZINC000096014547    0.2000
101    H101    5.8386  -19.5212  -11.5114 H        1 ZINC000096014547    0.3500
@<TRIPOS>BOND
1     1     2     1
2     1     63    1
3     1     64    1
4     1     65    1
5     2     3     1
6     2     66    1
7     2     67    1
8     3     4     1
9     3     68    1
10    3     69    1
11    4     5     1
12    4     70    1
13    4     71    1
14    5     6     1
15    5     72    1
16    5     73    1
17    6     7     2
18    6     74    1
19    7     8     1
20    7     75    1
21    8     9     2
22    8     10    1
23    10    11    1
24    11    12    1
25    11    76    1
26    11    77    1
27    12    13    1
28    12    78    1
29    12    79    1
30    13    14    am
31    13    80    1
32    14    15    2
33    14    16    1
34    16    17    1
35    16    81    1
36    16    82    1
37    17    18    1
38    17    83    1
39    17    84    1
40    18    19    am
41    18    85    1
42    19    20    2
43    19    21    1
44    21    22    1
45    21    23    1
46    21    24    1
47    23    86    1
48    24    25    1
49    24    26    1
50    24    27    1
51    25    87    1
52    25    88    1
53    25    89    1
54    26    90    1
55    26    91    1
56    26    92    1
57    27    28    1
58    27    93    1
59    27    94    1
60    28    29    1
61    29    30    ar
62    29    31    ar
63    29    32    1
64    32    33    1
65    33    34    ar
66    33    35    ar
67    33    36    1
68    36    37    1
69    37    38    1
70    37    95    1
71    37    96    1
72    38    39    1
73    38    56    1
74    38    40    1
75    40    41    1
76    41    42    1
77    41    43    1
78    41    53    1
79    43    52    1
80    43    44    1
81    44    45    2
82    44    97    1
83    45    46    1
84    46    52    ar
85    46    47    ar
86    47    48    1
87    47    49    ar
88    48    98    1
89    48    99    1
90    49    50    ar
91    50    51    ar
92    50    100   1
93    51    52    ar
94    53    54    1
95    53    55    1
96    53    56    1
97    55    101   1
98    56    57    1
99    56    58    1
100   58    59    1
101   59    60    ar
102   59    61    ar
103   59    62    ar
@<TRIPOS>SUBSTRUCTURE
1   ZINC000096014547 1     RESIDUE    1   A     ZIN   1
@<TRIPOS>MOLECULE
ZINC000096014555
109   111   1     0     0
SMALL
USER_CHARGES
@<TRIPOS>ATOM
1      C1     15.8218   -9.0857  -24.9921 C.3      1 ZINC000096014555   -0.1500
2      C2     15.3205  -10.2563  -24.1439 C.3      1 ZINC000096014555   -0.1300
3      C3     14.4649   -9.7227  -22.9933 C.3      1 ZINC000096014555   -0.1200
4      C4     13.9636  -10.8932  -22.1451 C.3      1 ZINC000096014555   -0.1200
5      C5     13.1079  -10.3596  -20.9945 C.3      1 ZINC000096014555   -0.1200
6      C6     12.6066  -11.5301  -20.1463 C.3      1 ZINC000096014555   -0.1200
7      C7     11.7509  -10.9965  -18.9956 C.3      1 ZINC000096014555   -0.1200
8      C8     11.2496  -12.1671  -18.1475 C.3      1 ZINC000096014555   -0.1100
9      C9     10.3939  -11.6335  -16.9968 C.3      1 ZINC000096014555   -0.1500
10     C10     9.9002  -12.7864  -16.1614 C.2      1 ZINC000096014555    0.3300
11     O11    10.2030  -13.9234  -16.4573 O.2      1 ZINC000096014555   -0.4500
12     S12     8.9120  -12.4918  -14.7948 S.3      1 ZINC000096014555   -0.1200
13     C13     8.6502  -14.1895  -14.2243 C.3      1 ZINC000096014555   -0.1200
14     C14     7.7677  -14.1772  -12.9745 C.3      1 ZINC000096014555    0.1400
15     N15     7.5559  -15.5514  -12.5128 N.am     1 ZINC000096014555   -0.7300
16     C16     6.8040  -15.7864  -11.4192 C.2      1 ZINC000096014555    0.5200
17     O17     6.3029  -14.8604  -10.8173 O.2      1 ZINC000096014555   -0.5300
18     C18     6.5861  -17.1999  -10.9443 C.3      1 ZINC000096014555   -0.1500
19     C19     5.7036  -17.1877   -9.6945 C.3      1 ZINC000096014555    0.1400
20     N20     5.4918  -18.5618   -9.2328 N.am     1 ZINC000096014555   -0.7400
21     C21     4.7400  -18.7969   -8.1392 C.2      1 ZINC000096014555    0.5000
22     O22     4.3143  -17.8686   -7.4849 O.2      1 ZINC000096014555   -0.5200
23     C23     4.4282  -20.2131   -7.7293 C.3      1 ZINC000096014555    0.1000
24     H24     3.3509  -20.3279   -7.6093 H        1 ZINC000096014555    0.1400
25     O25     4.8939  -21.1139   -8.7362 O.3      1 ZINC000096014555   -0.5500
26     C26     5.1252  -20.5256   -6.4037 C.3      1 ZINC000096014555   -0.0900
27     C27     6.6215  -20.2338   -6.5330 C.3      1 ZINC000096014555   -0.1400
28     C28     4.5294  -19.6540   -5.2963 C.3      1 ZINC000096014555   -0.1400
29     C29     4.9216  -22.0016   -6.0560 C.3      1 ZINC000096014555    0.1500
30     O30     5.5726  -22.2935   -4.8178 O.3      1 ZINC000096014555   -0.7700
31     P31     5.5641  -23.7567   -4.1462 P.3      1 ZINC000096014555    2.2900
32     O32     4.1055  -24.2375   -3.9776 O.co2    1 ZINC000096014555   -1.1000
33     O33     6.3303  -24.7445   -5.0540 O.co2    1 ZINC000096014555   -1.1100
34     O34     6.2770  -23.6895   -2.7042 O.3      1 ZINC000096014555   -1.0900
35     P35     6.3265  -24.6775   -1.4339 P.3      1 ZINC000096014555    2.2900
36     O36     4.9304  -25.3005   -1.2114 O.co2    1 ZINC000096014555   -1.1000
37     O37     7.3558  -25.7999   -1.6943 O.co2    1 ZINC000096014555   -1.1000
38     O38     6.7584  -23.8465   -0.1243 O.3      1 ZINC000096014555   -0.7700
39     C39     6.7925  -24.4191    1.1845 C.3      1 ZINC000096014555    0.1400
40     C40     7.2436  -23.3604    2.1927 C.3      1 ZINC000096014555    0.0700
41     H41     8.1928  -22.9229    1.8833 H        1 ZINC000096014555    0.1000
42     O42     6.2371  -22.3336    2.3279 O.3      1 ZINC000096014555   -0.3500
43     C43     6.5077  -21.7002    3.5973 C.3      1 ZINC000096014555    0.2600
44     H44     7.3445  -21.0078    3.5052 H        1 ZINC000096014555    0.1200
45     N45     5.3166  -20.9976    4.0810 N.pl3    1 ZINC000096014555   -0.4500
46     C46     4.0252  -21.2701    3.7397 C.2      1 ZINC000096014555    0.2900
47     N47     3.2209  -20.4519    4.3540 N.2      1 ZINC000096014555   -0.4800
48     C48     3.9428  -19.6048    5.1262 C.ar     1 ZINC000096014555   -0.1000
49     C49     3.6269  -18.5411    5.9882 C.ar     1 ZINC000096014555    0.5000
50     N50     2.3118  -18.1612    6.1915 N.pl3    1 ZINC000096014555   -0.8300
51     N51     4.6204  -17.9086    6.6041 N.ar     1 ZINC000096014555   -0.6000
52     C52     5.8781  -18.2644    6.4166 C.ar     1 ZINC000096014555    0.3400
53     N53     6.2210  -19.2537    5.6186 N.ar     1 ZINC000096014555   -0.5400
54     C54     5.2958  -19.9485    4.9649 C.ar     1 ZINC000096014555    0.2900
55     C55     6.8729  -22.8617    4.5480 C.3      1 ZINC000096014555    0.0600
56     H56     5.9945  -23.1921    5.1025 H        1 ZINC000096014555    0.0700
57     O57     7.9110  -22.4657    5.4467 O.3      1 ZINC000096014555   -0.5000
58     C58     7.3711  -23.9797    3.6022 C.3      1 ZINC000096014555    0.1500
59     H59     6.7383  -24.8630    3.6884 H        1 ZINC000096014555    0.0800
60     O60     8.7313  -24.3098    3.8899 O.3      1 ZINC000096014555   -0.7200
61     P61     9.2047  -25.7908    4.3080 P.3      1 ZINC000096014555    2.1200
62     O62     8.3777  -26.2727    5.5483 O.co2    1 ZINC000096014555   -1.1900
63     O63     8.9688  -26.7722    3.1098 O.co2    1 ZINC000096014555   -1.1700
64     O64    10.7281  -25.7686    4.6727 O.co2    1 ZINC000096014555   -1.1700
65     H65    14.9700   -8.5388  -25.3962 H        1 ZINC000096014555    0.0500
66     H66    16.4212   -8.4186  -24.3726 H        1 ZINC000096014555    0.0500
67     H67    16.4314   -9.4659  -25.8119 H        1 ZINC000096014555    0.0500
68     H68    14.7211  -10.9234  -24.7635 H        1 ZINC000096014555    0.0600
69     H69    16.1724  -10.8032  -23.7399 H        1 ZINC000096014555    0.0600
70     H70    15.0643   -9.0556  -22.3738 H        1 ZINC000096014555    0.0600
71     H71    13.6130   -9.1757  -23.3973 H        1 ZINC000096014555    0.0600
72     H72    13.3642  -11.5603  -22.7646 H        1 ZINC000096014555    0.0600
73     H73    14.8154  -11.4402  -21.7411 H        1 ZINC000096014555    0.0600
74     H74    13.7073   -9.6925  -20.3750 H        1 ZINC000096014555    0.0600
75     H75    12.2560   -9.8126  -21.3985 H        1 ZINC000096014555    0.0600
76     H76    12.0072  -12.1973  -20.7658 H        1 ZINC000096014555    0.0600
77     H77    13.4585  -12.0771  -19.7423 H        1 ZINC000096014555    0.0600
78     H78    12.3503  -10.3294  -18.3761 H        1 ZINC000096014555    0.0600
79     H79    10.8990  -10.4496  -19.3997 H        1 ZINC000096014555    0.0600
80     H80    10.6502  -12.8342  -18.7670 H        1 ZINC000096014555    0.0700
81     H81    12.1015  -12.7140  -17.7434 H        1 ZINC000096014555    0.0700
82     H82    10.9933  -10.9664  -16.3773 H        1 ZINC000096014555    0.1100
83     H83     9.5420  -11.0865  -17.4008 H        1 ZINC000096014555    0.1100
84     H84     8.1601  -14.7651  -15.0095 H        1 ZINC000096014555    0.1000
85     H85     9.6114  -14.6450  -13.9860 H        1 ZINC000096014555    0.1000
86     H86     8.2578  -13.6016  -12.1893 H        1 ZINC000096014555    0.0800
87     H87     6.8066  -13.7218  -13.2129 H        1 ZINC000096014555    0.0800
88     H88     7.9567  -16.2920  -12.9942 H        1 ZINC000096014555    0.4000
89     H89     6.0960  -17.7756  -11.7295 H        1 ZINC000096014555    0.1000
90     H90     7.5473  -17.6554  -10.7059 H        1 ZINC000096014555    0.1100
91     H91     6.1938  -16.6120   -8.9093 H        1 ZINC000096014555    0.0800
92     H92     4.7425  -16.7322   -9.9328 H        1 ZINC000096014555    0.0700
93     H93     5.8926  -19.3024   -9.7141 H        1 ZINC000096014555    0.4000
94     H94     5.8463  -21.0663   -8.8965 H        1 ZINC000096014555    0.3700
95     H95     6.7665  -19.1823   -6.7807 H        1 ZINC000096014555    0.0400
96     H96     7.1181  -20.4564   -5.5885 H        1 ZINC000096014555    0.0800
97     H97     7.0459  -20.8548   -7.3219 H        1 ZINC000096014555    0.0500
98     H98     3.4465  -19.7769   -5.2802 H        1 ZINC000096014555    0.0500
99     H99     4.9437  -19.9553   -4.3342 H        1 ZINC000096014555    0.0800
100    H100    4.7736  -18.6087   -5.4858 H        1 ZINC000096014555    0.0600
101    H101    3.8556  -22.2095   -5.9638 H        1 ZINC000096014555    0.0500
102    H102    5.3461  -22.6226   -6.8448 H        1 ZINC000096014555    0.0600
103    H103    5.7972  -24.7744    1.4517 H        1 ZINC000096014555    0.0600
104    H104    7.4922  -25.2547    1.1975 H        1 ZINC000096014555    0.1000
105    H105    3.7153  -22.0496    3.0595 H        1 ZINC000096014555    0.2300
106    H106    1.5954  -18.6308    5.7364 H        1 ZINC000096014555    0.4200
107    H107    2.1064  -17.4252    6.7891 H        1 ZINC000096014555    0.4000
108    H108    6.6545  -17.7234    6.9370 H        1 ZINC000096014555    0.2000
109    H109    7.6718  -21.7268    6.0228 H        1 ZINC000096014555    0.3500
@<TRIPOS>BOND
1     1     2     1
2     1     65    1
3     1     66    1
4     1     67    1
5     2     3     1
6     2     68    1
7     2     69    1
8     3     4     1
9     3     70    1
10    3     71    1
11    4     5     1
12    4     72    1
13    4     73    1
14    5     6     1
15    5     74    1
16    5     75    1
17    6     7     1
18    6     76    1
19    6     77    1
20    7     8     1
21    7     78    1
22    7     79    1
23    8     9     1
24    8     80    1
25    8     81    1
26    9     10    1
27    9     82    1
28    9     83    1
29    10    11    2
30    10    12    1
31    12    13    1
32    13    14    1
33    13    84    1
34    13    85    1
35    14    15    1
36    14    86    1
37    14    87    1
38    15    16    am
39    15    88    1
40    16    17    2
41    16    18    1
42    18    19    1
43    18    89    1
44    18    90    1
45    19    20    1
46    19    91    1
47    19    92    1
48    20    21    am
49    20    93    1
50    21    22    2
51    21    23    1
52    23    24    1
53    23    25    1
54    23    26    1
55    25    94    1
56    26    27    1
57    26    28    1
58    26    29    1
59    27    95    1
60    27    96    1
61    27    97    1
62    28    98    1
63    28    99    1
64    28    100   1
65    29    30    1
66    29    101   1
67    29    102   1
68    30    31    1
69    31    32    ar
70    31    33    ar
71    31    34    1
72    34    35    1
73    35    36    ar
74    35    37    ar
75    35    38    1
76    38    39    1
77    39    40    1
78    39    103   1
79    39    104   1
80    40    41    1
81    40    58    1
82    40    42    1
83    42    43    1
84    43    44    1
85    43    45    1
86    43    55    1
87    45    54    1
88    45    46    1
89    46    47    2
90    46    105   1
91    47    48    1
92    48    54    ar
93    48    49    ar
94    49    50    1
95    49    51    ar
96    50    106   1
97    50    107   1
98    51    52    ar
99    52    53    ar
100   52    108   1
101   53    54    ar
102   55    56    1
103   55    57    1
104   55    58    1
105   57    109   1
106   58    59    1
107   58    60    1
108   60    61    1
109   61    62    ar
110   61    63    ar
111   61    64    ar
@<TRIPOS>SUBSTRUCTURE
1   ZINC000096014555 1     RESIDUE    1   A     ZIN   1
@<TRIPOS>MOLECULE
ZINC000096068397
96    98    1     0     0
SMALL
USER_CHARGES
@<TRIPOS>ATOM
1      C1     -0.0985    1.3509    0.2822 C.3      1 ZINC000096068397   -0.1500
2      C2     -0.1133   -0.1556    0.0155 C.3      1 ZINC000096068397   -0.1000
3      C3      0.5901   -0.8836    1.1627 C.3      1 ZINC000096068397   -0.1300
4      C4     -1.5606   -0.6414   -0.0855 C.3      1 ZINC000096068397    0.1400
5      O5     -2.2415   -0.3681    1.1407 O.3      1 ZINC000096068397   -0.7600
6      P6     -3.7866   -0.7464    1.3890 P.3      1 ZINC000096068397    2.2900
7      O7     -4.6557   -0.1184    0.2767 O.co2    1 ZINC000096068397   -1.1000
8      O8     -3.9509   -2.2825    1.3654 O.co2    1 ZINC000096068397   -1.1100
9      O9     -4.2548   -0.1785    2.8209 O.3      1 ZINC000096068397   -1.0900
10     P10    -5.6875    0.0547    3.5174 P.3      1 ZINC000096068397    2.2900
11     O11    -6.6844    0.6047    2.4731 O.co2    1 ZINC000096068397   -1.1000
12     O12    -6.2135   -1.2867    4.0750 O.co2    1 ZINC000096068397   -1.1000
13     O13    -5.5331    1.1127    4.7211 O.3      1 ZINC000096068397   -0.7700
14     C14    -6.6453    1.6085    5.4689 C.3      1 ZINC000096068397    0.1400
15     C15    -6.1483    2.5907    6.5316 C.3      1 ZINC000096068397    0.0700
16     H16    -5.3807    2.1241    7.1491 H        1 ZINC000096068397    0.1000
17     O17    -5.6334    3.7875    5.9084 O.3      1 ZINC000096068397   -0.3500
18     C18    -5.6655    4.7977    6.9401 C.3      1 ZINC000096068397    0.2600
19     H19    -4.8245    4.6707    7.6218 H        1 ZINC000096068397    0.1200
20     N20    -5.6403    6.1359    6.3445 N.pl3    1 ZINC000096068397   -0.4500
21     C21    -6.0404    6.4653    5.0836 C.2      1 ZINC000096068397    0.2900
22     N22    -5.8814    7.7417    4.8859 N.2      1 ZINC000096068397   -0.4800
23     C23    -5.3706    8.3110    6.0040 C.ar     1 ZINC000096068397   -0.1000
24     C24    -5.0011    9.6170    6.3675 C.ar     1 ZINC000096068397    0.5000
25     N25    -5.1372   10.6657    5.4748 N.pl3    1 ZINC000096068397   -0.8300
26     N26    -4.5183    9.8219    7.5887 N.ar     1 ZINC000096068397   -0.6000
27     C27    -4.3854    8.8274    8.4472 C.ar     1 ZINC000096068397    0.3400
28     N28    -4.7178    7.5886    8.1506 N.ar     1 ZINC000096068397   -0.5400
29     C29    -5.2153    7.2885    6.9554 C.ar     1 ZINC000096068397    0.2900
30     C30    -6.9997    4.5617    7.6821 C.3      1 ZINC000096068397    0.0600
31     H31    -7.7809    5.2049    7.2771 H        1 ZINC000096068397    0.0700
32     O32    -6.8406    4.7912    9.0836 O.3      1 ZINC000096068397   -0.5000
33     C33    -7.3241    3.0741    7.4091 C.3      1 ZINC000096068397    0.1500
34     H34    -8.2659    2.9817    6.8681 H        1 ZINC000096068397    0.0800
35     O35    -7.3778    2.3403    8.6341 O.3      1 ZINC000096068397   -0.7200
36     P36    -8.6839    1.5312    9.1151 P.3      1 ZINC000096068397    2.1200
37     O37    -9.9162    2.4982    9.1433 O.co2    1 ZINC000096068397   -1.1900
38     O38    -8.9658    0.3550    8.1193 O.co2    1 ZINC000096068397   -1.1700
39     O39    -8.4408    0.9530   10.5508 O.co2    1 ZINC000096068397   -1.1700
40     C40     0.6157   -0.4483   -1.2974 C.3      1 ZINC000096068397    0.1100
41     H41     1.6142   -0.0124   -1.2635 H        1 ZINC000096068397    0.1200
42     O42     0.7190   -1.8618   -1.4801 O.3      1 ZINC000096068397   -0.5400
43     C43    -0.1555    0.1515   -2.4448 C.2      1 ZINC000096068397    0.4900
44     O44    -0.7013   -0.5707   -3.2519 O.2      1 ZINC000096068397   -0.5300
45     N45    -0.2388    1.4905   -2.5740 N.am     1 ZINC000096068397   -0.7300
46     C46    -1.0675    2.0742   -3.6317 C.3      1 ZINC000096068397    0.1300
47     C47    -0.9878    3.6004   -3.5583 C.3      1 ZINC000096068397   -0.1500
48     C48    -1.8403    4.2008   -4.6463 C.2      1 ZINC000096068397    0.5200
49     O49    -2.4515    3.4791   -5.4056 O.2      1 ZINC000096068397   -0.5300
50     N50    -1.9236    5.5398   -4.7755 N.am     1 ZINC000096068397   -0.7300
51     C51    -2.7523    6.1235   -5.8332 C.3      1 ZINC000096068397    0.1400
52     C52    -2.6726    7.6497   -5.7598 C.3      1 ZINC000096068397   -0.1200
53     S53    -3.6965    8.3708   -7.0665 S.3      1 ZINC000096068397   -0.1300
54     C54    -3.4343   10.0356   -6.7650 C.2      1 ZINC000096068397    0.3300
55     O55    -2.7095   10.3805   -5.8552 O.2      1 ZINC000096068397   -0.4500
56     C56    -4.1038   11.0725   -7.6296 C.3      1 ZINC000096068397   -0.1400
57     C57    -3.7053   12.4700   -7.1510 C.3      1 ZINC000096068397   -0.1100
58     C58    -4.3850   13.5228   -8.0288 C.3      1 ZINC000096068397   -0.0900
59     C59    -3.9865   14.9203   -7.5503 C.3      1 ZINC000096068397   -0.1800
60     C60    -4.6560   15.9573   -8.4149 C.2      1 ZINC000096068397    0.4900
61     O61    -5.3844   15.6106   -9.3291 O.co2    1 ZINC000096068397   -0.7000
62     O62    -4.4693   17.1428   -8.2002 O.co2    1 ZINC000096068397   -0.7100
63     H63     0.9273    1.7171    0.2410 H        1 ZINC000096068397    0.0500
64     H64    -0.6966    1.8597   -0.4738 H        1 ZINC000096068397    0.0600
65     H65    -0.5157    1.5492    1.2695 H        1 ZINC000096068397    0.0800
66     H66     0.0362   -0.7245    2.0879 H        1 ZINC000096068397    0.0800
67     H67     0.6331   -1.9505    0.9439 H        1 ZINC000096068397    0.0600
68     H68     1.6022   -0.4943    1.2737 H        1 ZINC000096068397    0.0500
69     H69    -2.0617   -0.1228   -0.9028 H        1 ZINC000096068397    0.0500
70     H70    -1.5712   -1.7147   -0.2755 H        1 ZINC000096068397    0.0500
71     H71    -7.3362    2.1185    4.7976 H        1 ZINC000096068397    0.0600
72     H72    -7.1569    0.7770    5.9537 H        1 ZINC000096068397    0.1000
73     H73    -6.4312    5.7695    4.3559 H        1 ZINC000096068397    0.2300
74     H74    -5.4912   10.5036    4.5864 H        1 ZINC000096068397    0.4200
75     H75    -4.8786   11.5629    5.7376 H        1 ZINC000096068397    0.4000
76     H76    -3.9887    9.0381    9.4294 H        1 ZINC000096068397    0.2000
77     H77    -6.5780    5.6946    9.3069 H        1 ZINC000096068397    0.3500
78     H78    -0.1335   -2.3166   -1.5195 H        1 ZINC000096068397    0.3900
79     H79     0.2500    2.0677   -1.9666 H        1 ZINC000096068397    0.4000
80     H80    -0.7064    1.7378   -4.6035 H        1 ZINC000096068397    0.0700
81     H81    -2.1021    1.7576   -3.4990 H        1 ZINC000096068397    0.0900
82     H82    -1.3490    3.9367   -2.5864 H        1 ZINC000096068397    0.1100
83     H83     0.0467    3.9170   -3.6909 H        1 ZINC000096068397    0.1000
84     H84    -1.4348    6.1170   -4.1681 H        1 ZINC000096068397    0.4000
85     H85    -2.3912    5.7871   -6.8050 H        1 ZINC000096068397    0.0800
86     H86    -3.7869    5.8069   -5.7005 H        1 ZINC000096068397    0.0800
87     H87    -3.0338    7.9860   -4.7879 H        1 ZINC000096068397    0.1000
88     H88    -1.6381    7.9663   -5.8924 H        1 ZINC000096068397    0.1000
89     H89    -3.7900   10.9398   -8.6650 H        1 ZINC000096068397    0.1000
90     H90    -5.1857   10.9596   -7.5605 H        1 ZINC000096068397    0.1100
91     H91    -4.0191   12.6027   -6.1157 H        1 ZINC000096068397    0.0600
92     H92    -2.6234   12.5829   -7.2201 H        1 ZINC000096068397    0.0600
93     H93    -4.0713   13.3901   -9.0642 H        1 ZINC000096068397    0.0600
94     H94    -5.4670   13.4099   -7.9598 H        1 ZINC000096068397    0.0600
95     H95    -4.3003   15.0530   -6.5149 H        1 ZINC000096068397    0.0600
96     H96    -2.9046   15.0332   -7.6194 H        1 ZINC000096068397    0.0500
@<TRIPOS>BOND
1     1     2     1
2     1     63    1
3     1     64    1
4     1     65    1
5     2     3     1
6     2     4     1
7     2     40    1
8     3     66    1
9     3     67    1
10    3     68    1
11    4     5     1
12    4     69    1
13    4     70    1
14    5     6     1
15    6     7     ar
16    6     8     ar
17    6     9     1
18    9     10    1
19    10    11    ar
20    10    12    ar
21    10    13    1
22    13    14    1
23    14    15    1
24    14    71    1
25    14    72    1
26    15    16    1
27    15    33    1
28    15    17    1
29    17    18    1
30    18    19    1
31    18    20    1
32    18    30    1
33    20    29    1
34    20    21    1
35    21    22    2
36    21    73    1
37    22    23    1
38    23    29    ar
39    23    24    ar
40    24    25    1
41    24    26    ar
42    25    74    1
43    25    75    1
44    26    27    ar
45    27    28    ar
46    27    76    1
47    28    29    ar
48    30    31    1
49    30    32    1
50    30    33    1
51    32    77    1
52    33    34    1
53    33    35    1
54    35    36    1
55    36    37    ar
56    36    38    ar
57    36    39    ar
58    40    41    1
59    40    42    1
60    40    43    1
61    42    78    1
62    43    44    2
63    43    45    am
64    45    46    1
65    45    79    1
66    46    47    1
67    46    80    1
68    46    81    1
69    47    48    1
70    47    82    1
71    47    83    1
72    48    49    2
73    48    50    am
74    50    51    1
75    50    84    1
76    51    52    1
77    51    85    1
78    51    86    1
79    52    53    1
80    52    87    1
81    52    88    1
82    53    54    1
83    54    55    2
84    54    56    1
85    56    57    1
86    56    89    1
87    56    90    1
88    57    58    1
89    57    91    1
90    57    92    1
91    58    59    1
92    58    93    1
93    58    94    1
94    59    60    1
95    59    95    1
96    59    96    1
97    60    61    ar
98    60    62    ar
@<TRIPOS>SUBSTRUCTURE
1   ZINC000096068397 1     RESIDUE    1   A     ZIN   1
@<TRIPOS>MOLECULE
ZINC000096014517
95    97    1     0     0
SMALL
USER_CHARGES
@<TRIPOS>ATOM
1      C1     11.0155   -7.0583  -15.4312 C.3      1 ZINC000096014517   -0.1900
2      C2     10.3238   -8.0788  -14.5251 C.3      1 ZINC000096014517    0.1200
3      H3     11.0713   -8.7371  -14.0824 H        1 ZINC000096014517    0.1000
4      O4      9.4034   -8.8537  -15.2961 O.3      1 ZINC000096014517   -0.5500
5      C5      9.5683   -7.3456  -13.4149 C.3      1 ZINC000096014517   -0.1500
6      H6      8.8208   -6.6873  -13.8576 H        1 ZINC000096014517    0.1100
7      C7     10.5537   -6.5160  -12.5893 C.3      1 ZINC000096014517   -0.1500
8      C8      8.8870   -8.3508  -12.5224 C.2      1 ZINC000096014517    0.3300
9      O9      8.9951   -9.5373  -12.7518 O.2      1 ZINC000096014517   -0.4200
10     S10     7.9604   -7.8186  -11.1848 S.3      1 ZINC000096014517   -0.1200
11     C11     7.4168   -9.4137  -10.5244 C.3      1 ZINC000096014517   -0.1200
12     C12     6.5473   -9.1836   -9.2867 C.3      1 ZINC000096014517    0.1400
13     N13     6.1072  -10.4747   -8.7522 N.am     1 ZINC000096014517   -0.7300
14     C14     5.3252  -10.5187   -7.6554 C.2      1 ZINC000096014517    0.5200
15     O15     4.9857   -9.4895   -7.1109 O.2      1 ZINC000096014517   -0.5300
16     C16     4.8725  -11.8468   -7.1055 C.3      1 ZINC000096014517   -0.1500
17     C17     4.0030  -11.6167   -5.8678 C.3      1 ZINC000096014517    0.1400
18     N18     3.5630  -12.9078   -5.3333 N.am     1 ZINC000096014517   -0.7400
19     C19     2.7810  -12.9518   -4.2365 C.2      1 ZINC000096014517    0.5000
20     O20     2.5179  -11.9303   -3.6379 O.2      1 ZINC000096014517   -0.5300
21     C21     2.2334  -14.2702   -3.7539 C.3      1 ZINC000096014517    0.1000
22     H22     2.4073  -14.3655   -2.6821 H        1 ZINC000096014517    0.1400
23     O23     2.8898  -15.3383   -4.4398 O.3      1 ZINC000096014517   -0.5500
24     C24     0.7305  -14.3315   -4.0342 C.3      1 ZINC000096014517   -0.0900
25     C25     0.0101  -13.2825   -3.1848 C.3      1 ZINC000096014517   -0.1400
26     C26     0.4762  -14.0499   -5.5164 C.3      1 ZINC000096014517   -0.1400
27     C27     0.2023  -15.7235   -3.6817 C.3      1 ZINC000096014517    0.1500
28     O28    -1.2013  -15.7808   -3.9434 O.3      1 ZINC000096014517   -0.7700
29     P29    -2.0881  -17.0998   -3.6866 P.3      1 ZINC000096014517    2.2900
30     O30    -1.4695  -18.2928   -4.4490 O.co2    1 ZINC000096014517   -1.1000
31     O31    -2.1172  -17.4144   -2.1743 O.co2    1 ZINC000096014517   -1.1100
32     O32    -3.5892  -16.8478   -4.2114 O.3      1 ZINC000096014517   -1.0900
33     P33    -4.8398  -17.8111   -4.5280 P.3      1 ZINC000096014517    2.2900
34     O34    -4.3366  -19.0977   -5.2199 O.co2    1 ZINC000096014517   -1.1000
35     O35    -5.5519  -18.1812   -3.2078 O.co2    1 ZINC000096014517   -1.1000
36     O36    -5.8725  -17.0482   -5.4993 O.3      1 ZINC000096014517   -0.7700
37     C37    -7.0343  -17.6750   -6.0465 C.3      1 ZINC000096014517    0.1400
38     C38    -7.7906  -16.6727   -6.9207 C.3      1 ZINC000096014517    0.0700
39     H39    -8.0092  -15.7666   -6.3556 H        1 ZINC000096014517    0.1000
40     O40    -7.0222  -16.3555   -8.1017 O.3      1 ZINC000096014517   -0.3500
41     C41    -7.9798  -15.8386   -9.0513 C.3      1 ZINC000096014517    0.2600
42     H42    -8.2291  -14.8044   -8.8139 H        1 ZINC000096014517    0.1200
43     N43    -7.4499  -15.9347  -10.4137 N.pl3    1 ZINC000096014517   -0.4500
44     C44    -6.4905  -16.8009  -10.8468 C.2      1 ZINC000096014517    0.2900
45     N45    -6.2606  -16.6125  -12.1138 N.2      1 ZINC000096014517   -0.4800
46     C46    -7.0555  -15.6163  -12.5731 C.ar     1 ZINC000096014517   -0.1000
47     C47    -7.2410  -14.9952  -13.8197 C.ar     1 ZINC000096014517    0.5000
48     N48    -6.5091  -15.3930  -14.9248 N.pl3    1 ZINC000096014517   -0.8300
49     N49    -8.1361  -14.0171  -13.9131 N.ar     1 ZINC000096014517   -0.6000
50     C50    -8.8392  -13.6313  -12.8642 C.ar     1 ZINC000096014517    0.3400
51     N51    -8.6989  -14.1835  -11.6774 N.ar     1 ZINC000096014517   -0.5400
52     C52    -7.8324  -15.1733  -11.4891 C.ar     1 ZINC000096014517    0.3000
53     C53    -9.2225  -16.7419   -8.8901 C.3      1 ZINC000096014517    0.0600
54     H54    -9.2037  -17.5511   -9.6201 H        1 ZINC000096014517    0.0700
55     O55   -10.4203  -15.9746   -9.0258 O.3      1 ZINC000096014517   -0.5000
56     C56    -9.0966  -17.3023   -7.4538 C.3      1 ZINC000096014517    0.1500
57     H57    -9.0148  -18.3890   -7.4736 H        1 ZINC000096014517    0.0800
58     O58   -10.2144  -16.9000   -6.6596 O.3      1 ZINC000096014517   -0.7200
59     P59   -11.2020  -17.9487   -5.9406 P.3      1 ZINC000096014517    2.1200
60     O60   -11.7733  -18.9438   -7.0074 O.co2    1 ZINC000096014517   -1.1900
61     O61   -10.4103  -18.7490   -4.8511 O.co2    1 ZINC000096014517   -1.1700
62     O62   -12.3835  -17.1739   -5.2638 O.co2    1 ZINC000096014517   -1.1700
63     H63    10.2680   -6.4000  -15.8739 H        1 ZINC000096014517    0.0600
64     H64    11.7175   -6.4672  -14.8430 H        1 ZINC000096014517    0.0700
65     H65    11.5537   -7.5806  -16.2221 H        1 ZINC000096014517    0.0700
66     H66     8.7087   -8.3317  -15.7204 H        1 ZINC000096014517    0.3700
67     H67    10.0155   -5.9937  -11.7984 H        1 ZINC000096014517    0.0700
68     H68    11.3012   -7.1743  -12.1466 H        1 ZINC000096014517    0.0600
69     H69    11.0465   -5.7889  -13.2348 H        1 ZINC000096014517    0.0800
70     H70     6.8380   -9.9423  -11.2818 H        1 ZINC000096014517    0.1000
71     H71     8.2876  -10.0096  -10.2510 H        1 ZINC000096014517    0.1000
72     H72     7.1260   -8.6550   -8.5293 H        1 ZINC000096014517    0.0800
73     H73     5.6765   -8.5877   -9.5601 H        1 ZINC000096014517    0.0800
74     H74     6.3787  -11.2978   -9.1876 H        1 ZINC000096014517    0.4000
75     H75     4.2938  -12.3754   -7.8630 H        1 ZINC000096014517    0.1100
76     H76     5.7433  -12.4426   -6.8321 H        1 ZINC000096014517    0.1000
77     H77     4.5818  -11.0880   -5.1104 H        1 ZINC000096014517    0.0700
78     H78     3.1322  -11.0208   -6.1412 H        1 ZINC000096014517    0.0800
79     H79     3.8345  -13.7309   -5.7687 H        1 ZINC000096014517    0.4000
80     H80     2.7775  -15.3170   -5.4000 H        1 ZINC000096014517    0.3700
81     H81     0.3295  -12.2861   -3.4901 H        1 ZINC000096014517    0.0600
82     H82    -1.0666  -13.3780   -3.3256 H        1 ZINC000096014517    0.0800
83     H83     0.2541  -13.4362   -2.1336 H        1 ZINC000096014517    0.0500
84     H84     0.9894  -14.7972   -6.1215 H        1 ZINC000096014517    0.0500
85     H85    -0.5945  -14.0935   -5.7160 H        1 ZINC000096014517    0.0800
86     H86     0.8525  -13.0582   -5.7675 H        1 ZINC000096014517    0.0400
87     H87     0.7156  -16.4709   -4.2868 H        1 ZINC000096014517    0.0600
88     H88     0.3835  -15.9242   -2.6257 H        1 ZINC000096014517    0.0500
89     H89    -6.7345  -18.5309   -6.6512 H        1 ZINC000096014517    0.0600
90     H90    -7.6813  -18.0112   -5.2363 H        1 ZINC000096014517    0.1000
91     H91    -5.9940  -17.5348  -10.2294 H        1 ZINC000096014517    0.2300
92     H92    -5.8590  -16.1084  -14.8441 H        1 ZINC000096014517    0.4200
93     H93    -6.6462  -14.9565  -15.7801 H        1 ZINC000096014517    0.4000
94     H94    -9.5561  -12.8325  -12.9843 H        1 ZINC000096014517    0.2000
95     H95   -10.5202  -15.5507   -9.8892 H        1 ZINC000096014517    0.3500
@<TRIPOS>BOND
1     1     2     1
2     1     63    1
3     1     64    1
4     1     65    1
5     2     3     1
6     2     4     1
7     2     5     1
8     4     66    1
9     5     6     1
10    5     7     1
11    5     8     1
12    7     67    1
13    7     68    1
14    7     69    1
15    8     9     2
16    8     10    1
17    10    11    1
18    11    12    1
19    11    70    1
20    11    71    1
21    12    13    1
22    12    72    1
23    12    73    1
24    13    14    am
25    13    74    1
26    14    15    2
27    14    16    1
28    16    17    1
29    16    75    1
30    16    76    1
31    17    18    1
32    17    77    1
33    17    78    1
34    18    19    am
35    18    79    1
36    19    20    2
37    19    21    1
38    21    22    1
39    21    23    1
40    21    24    1
41    23    80    1
42    24    25    1
43    24    26    1
44    24    27    1
45    25    81    1
46    25    82    1
47    25    83    1
48    26    84    1
49    26    85    1
50    26    86    1
51    27    28    1
52    27    87    1
53    27    88    1
54    28    29    1
55    29    30    ar
56    29    31    ar
57    29    32    1
58    32    33    1
59    33    34    ar
60    33    35    ar
61    33    36    1
62    36    37    1
63    37    38    1
64    37    89    1
65    37    90    1
66    38    39    1
67    38    56    1
68    38    40    1
69    40    41    1
70    41    42    1
71    41    43    1
72    41    53    1
73    43    52    1
74    43    44    1
75    44    45    2
76    44    91    1
77    45    46    1
78    46    52    ar
79    46    47    ar
80    47    48    1
81    47    49    ar
82    48    92    1
83    48    93    1
84    49    50    ar
85    50    51    ar
86    50    94    1
87    51    52    ar
88    53    54    1
89    53    55    1
90    53    56    1
91    55    95    1
92    56    57    1
93    56    58    1
94    58    59    1
95    59    60    ar
96    59    61    ar
97    59    62    ar
@<TRIPOS>SUBSTRUCTURE
1   ZINC000096014517 1     RESIDUE    1   A     ZIN   1
@<TRIPOS>MOLECULE
ZINC000096014537
102   104   1     0     0
SMALL
USER_CHARGES
@<TRIPOS>ATOM
1      C1    -24.6673  -16.5166   -2.2911 C.3      1 ZINC000096014537   -0.1500
2      C2    -23.2329  -17.0252   -2.1347 C.3      1 ZINC000096014537   -0.1300
3      C3    -22.2749  -15.8346   -2.0594 C.3      1 ZINC000096014537   -0.1200
4      C4    -20.8405  -16.3432   -1.9030 C.3      1 ZINC000096014537   -0.1100
5      C5    -19.8825  -15.1526   -1.8277 C.3      1 ZINC000096014537   -0.1700
6      C6    -18.4696  -15.6536   -1.6737 C.2      1 ZINC000096014537    0.3500
7      O7    -18.2514  -16.8405   -1.6287 O.2      1 ZINC000096014537   -0.4100
8      C8    -17.3291  -14.6735   -1.5757 C.3      1 ZINC000096014537   -0.2000
9      C9    -16.0316  -15.4257   -1.4286 C.2      1 ZINC000096014537    0.3200
10     O10   -16.0328  -16.6388   -1.4056 O.2      1 ZINC000096014537   -0.4100
11     S11   -14.5557  -14.5686   -1.2940 S.3      1 ZINC000096014537   -0.1200
12     C12   -13.3998  -15.9539   -1.1494 C.3      1 ZINC000096014537   -0.1200
13     C13   -11.9738  -15.4162   -1.0138 C.3      1 ZINC000096014537    0.1400
14     N14   -11.0382  -16.5374   -0.8967 N.am     1 ZINC000096014537   -0.7300
15     C15    -9.7175  -16.3023   -0.7661 C.2      1 ZINC000096014537    0.5200
16     O16    -9.3037  -15.1625   -0.7455 O.2      1 ZINC000096014537   -0.5300
17     C17    -8.7551  -17.4557   -0.6457 C.3      1 ZINC000096014537   -0.1500
18     C18    -7.3291  -16.9180   -0.5101 C.3      1 ZINC000096014537    0.1400
19     N19    -6.3935  -18.0392   -0.3930 N.am     1 ZINC000096014537   -0.7400
20     C20    -5.0729  -17.8041   -0.2624 C.2      1 ZINC000096014537    0.5000
21     O21    -4.6487  -16.6702   -0.3351 O.2      1 ZINC000096014537   -0.5300
22     C22    -4.1232  -18.9501   -0.0261 C.3      1 ZINC000096014537    0.1000
23     H23    -3.2794  -18.8699   -0.7114 H        1 ZINC000096014537    0.1400
24     O24    -4.8035  -20.1865   -0.2508 O.3      1 ZINC000096014537   -0.5500
25     C25    -3.6151  -18.9023    1.4162 C.3      1 ZINC000096014537   -0.0900
26     C26    -2.7610  -17.6486    1.6148 C.3      1 ZINC000096014537   -0.1400
27     C27    -4.8064  -18.8650    2.3756 C.3      1 ZINC000096014537   -0.1400
28     C28    -2.7700  -20.1456    1.7007 C.3      1 ZINC000096014537    0.1500
29     O29    -2.2954  -20.1010    3.0479 O.3      1 ZINC000096014537   -0.7700
30     P30    -1.3716  -21.2522    3.6907 P.3      1 ZINC000096014537    2.2900
31     O31    -2.0725  -22.6205    3.5372 O.co2    1 ZINC000096014537   -1.1000
32     O32    -0.0097  -21.2865    2.9620 O.co2    1 ZINC000096014537   -1.1100
33     O33    -1.1367  -20.9419    5.2530 O.3      1 ZINC000096014537   -1.0900
34     P34    -0.5955  -21.8095    6.4965 P.3      1 ZINC000096014537    2.2900
35     O35    -1.1609  -23.2446    6.4081 O.co2    1 ZINC000096014537   -1.1000
36     O36     0.9481  -21.8607    6.4557 O.co2    1 ZINC000096014537   -1.1000
37     O37    -1.0736  -21.1283    7.8747 O.3      1 ZINC000096014537   -0.7700
38     C38    -0.8411  -21.7173    9.1557 C.3      1 ZINC000096014537    0.1400
39     C39    -1.4213  -20.8136   10.2455 C.3      1 ZINC000096014537    0.0700
40     H40    -1.0233  -19.8033   10.1513 H        1 ZINC000096014537    0.1000
41     O41    -2.8634  -20.7952   10.1682 O.3      1 ZINC000096014537   -0.3500
42     C42    -3.3087  -20.3586   11.4709 C.3      1 ZINC000096014537    0.2600
43     H43    -3.2002  -19.2783   11.5666 H        1 ZINC000096014537    0.1200
44     N44    -4.7026  -20.7519   11.6916 N.pl3    1 ZINC000096014537   -0.4500
45     C45    -5.3582  -21.7775   11.0779 C.2      1 ZINC000096014537    0.2900
46     N46    -6.5838  -21.8438   11.5105 N.2      1 ZINC000096014537   -0.4800
47     C47    -6.7921  -20.8678   12.4266 C.ar     1 ZINC000096014537   -0.1000
48     C48    -7.8876  -20.4637   13.2082 C.ar     1 ZINC000096014537    0.5000
49     N49    -9.0992  -21.1273   13.1260 N.pl3    1 ZINC000096014537   -0.8300
50     N50    -7.7329  -19.4295   14.0286 N.ar     1 ZINC000096014537   -0.6000
51     C51    -6.5805  -18.7907   14.1140 C.ar     1 ZINC000096014537    0.3400
52     N52    -5.5280  -19.1335   13.4013 N.ar     1 ZINC000096014537   -0.5400
53     C53    -5.5858  -20.1592   12.5582 C.ar     1 ZINC000096014537    0.2900
54     C54    -2.3786  -21.0830   12.4692 C.3      1 ZINC000096014537    0.0600
55     H55    -2.8390  -22.0071   12.8186 H        1 ZINC000096014537    0.0700
56     O56    -2.0685  -20.2308   13.5735 O.3      1 ZINC000096014537   -0.5000
57     C57    -1.1058  -21.3877   11.6445 C.3      1 ZINC000096014537    0.1500
58     H58    -0.9372  -22.4629   11.5855 H        1 ZINC000096014537    0.0800
59     O59     0.0295  -20.7347   12.2163 O.3      1 ZINC000096014537   -0.7200
60     P60     1.3383  -21.5284   12.7154 P.3      1 ZINC000096014537    2.1200
61     O61     0.9187  -22.6326   13.7445 O.co2    1 ZINC000096014537   -1.1900
62     O62     2.0420  -22.1997   11.4871 O.co2    1 ZINC000096014537   -1.1700
63     O63     2.3279  -20.5253   13.4002 O.co2    1 ZINC000096014537   -1.1700
64     H64   -25.3498  -17.3648   -2.3448 H        1 ZINC000096014537    0.0500
65     H65   -24.9276  -15.8944   -1.4348 H        1 ZINC000096014537    0.0500
66     H66   -24.7465  -15.9281   -3.2052 H        1 ZINC000096014537    0.0500
67     H67   -23.1537  -17.6136   -1.2206 H        1 ZINC000096014537    0.0600
68     H68   -22.9726  -17.6474   -2.9910 H        1 ZINC000096014537    0.0600
69     H69   -22.3541  -15.2462   -2.9735 H        1 ZINC000096014537    0.0600
70     H70   -22.5352  -15.2124   -1.2031 H        1 ZINC000096014537    0.0600
71     H71   -20.7613  -16.9317   -0.9889 H        1 ZINC000096014537    0.0700
72     H72   -20.5802  -16.9654   -2.7593 H        1 ZINC000096014537    0.0700
73     H73   -19.9617  -14.5642   -2.7418 H        1 ZINC000096014537    0.1000
74     H74   -20.1428  -14.5305   -0.9714 H        1 ZINC000096014537    0.1000
75     H75   -17.2953  -14.0639   -2.4786 H        1 ZINC000096014537    0.1400
76     H76   -17.4764  -14.0302   -0.7082 H        1 ZINC000096014537    0.1400
77     H77   -13.6502  -16.5457   -0.2689 H        1 ZINC000096014537    0.1100
78     H78   -13.4691  -16.5794   -2.0393 H        1 ZINC000096014537    0.1000
79     H79   -11.7234  -14.8244   -1.8942 H        1 ZINC000096014537    0.0800
80     H80   -11.9044  -14.7907   -0.1238 H        1 ZINC000096014537    0.0800
81     H81   -11.3692  -17.4491   -0.9132 H        1 ZINC000096014537    0.4000
82     H82    -9.0055  -18.0474    0.2348 H        1 ZINC000096014537    0.1100
83     H83    -8.8245  -18.0812   -1.5356 H        1 ZINC000096014537    0.1000
84     H84    -7.0787  -16.3262   -1.3905 H        1 ZINC000096014537    0.0700
85     H85    -7.2598  -16.2925    0.3799 H        1 ZINC000096014537    0.0800
86     H86    -6.7245  -18.9508   -0.4095 H        1 ZINC000096014537    0.4000
87     H87    -5.5674  -20.3255    0.3255 H        1 ZINC000096014537    0.3700
88     H88    -3.3822  -16.7619    1.4885 H        1 ZINC000096014537    0.0600
89     H89    -2.3354  -17.6541    2.6183 H        1 ZINC000096014537    0.0800
90     H90    -1.9567  -17.6366    0.8792 H        1 ZINC000096014537    0.0500
91     H91    -5.4149  -19.7582    2.2342 H        1 ZINC000096014537    0.0500
92     H92    -4.4444  -18.8310    3.4032 H        1 ZINC000096014537    0.0800
93     H93    -5.4085  -17.9793    2.1730 H        1 ZINC000096014537    0.0400
94     H94    -3.3785  -21.0388    1.5592 H        1 ZINC000096014537    0.0600
95     H95    -1.9213  -20.1721    1.0172 H        1 ZINC000096014537    0.0500
96     H96    -1.3226  -22.6942    9.1993 H        1 ZINC000096014537    0.0600
97     H97     0.2313  -21.8334    9.3129 H        1 ZINC000096014537    0.1000
98     H98    -4.9246  -22.4372   10.3409 H        1 ZINC000096014537    0.2300
99     H99    -9.1995  -21.8809   12.5236 H        1 ZINC000096014537    0.4200
100    H100   -9.8481  -20.8388   13.6708 H        1 ZINC000096014537    0.4000
101    H101   -6.4983  -17.9554   14.7936 H        1 ZINC000096014537    0.2000
102    H102   -2.8398  -19.9600   14.0901 H        1 ZINC000096014537    0.3500
@<TRIPOS>BOND
1     1     2     1
2     1     64    1
3     1     65    1
4     1     66    1
5     2     3     1
6     2     67    1
7     2     68    1
8     3     4     1
9     3     69    1
10    3     70    1
11    4     5     1
12    4     71    1
13    4     72    1
14    5     6     1
15    5     73    1
16    5     74    1
17    6     7     2
18    6     8     1
19    8     9     1
20    8     75    1
21    8     76    1
22    9     10    2
23    9     11    1
24    11    12    1
25    12    13    1
26    12    77    1
27    12    78    1
28    13    14    1
29    13    79    1
30    13    80    1
31    14    15    am
32    14    81    1
33    15    16    2
34    15    17    1
35    17    18    1
36    17    82    1
37    17    83    1
38    18    19    1
39    18    84    1
40    18    85    1
41    19    20    am
42    19    86    1
43    20    21    2
44    20    22    1
45    22    23    1
46    22    24    1
47    22    25    1
48    24    87    1
49    25    26    1
50    25    27    1
51    25    28    1
52    26    88    1
53    26    89    1
54    26    90    1
55    27    91    1
56    27    92    1
57    27    93    1
58    28    29    1
59    28    94    1
60    28    95    1
61    29    30    1
62    30    31    ar
63    30    32    ar
64    30    33    1
65    33    34    1
66    34    35    ar
67    34    36    ar
68    34    37    1
69    37    38    1
70    38    39    1
71    38    96    1
72    38    97    1
73    39    40    1
74    39    57    1
75    39    41    1
76    41    42    1
77    42    43    1
78    42    44    1
79    42    54    1
80    44    53    1
81    44    45    1
82    45    46    2
83    45    98    1
84    46    47    1
85    47    53    ar
86    47    48    ar
87    48    49    1
88    48    50    ar
89    49    99    1
90    49    100   1
91    50    51    ar
92    51    52    ar
93    51    101   1
94    52    53    ar
95    54    55    1
96    54    56    1
97    54    57    1
98    56    102   1
99    57    58    1
100   57    59    1
101   59    60    1
102   60    61    ar
103   60    62    ar
104   60    63    ar
@<TRIPOS>SUBSTRUCTURE
1   ZINC000096014537 1     RESIDUE    1   A     ZIN   1

@<TRIPOS>MOLECULE
ZINC000096014537
102   104   1     0     0
SMALL
USER_CHARGES
@<TRIPOS>ATOM
1      C1    -14.3450   -5.9162  -15.6680 C.3      1 ZINC000096014537   -0.1500
2      C2    -13.2369   -6.8301  -15.1409 C.3      1 ZINC000096014537   -0.1300
3      C3    -13.7079   -7.5139  -13.8558 C.3      1 ZINC000096014537   -0.1200
4      C4    -12.5998   -8.4278  -13.3288 C.3      1 ZINC000096014537   -0.1200
5      C5    -13.0708   -9.1116  -12.0437 C.3      1 ZINC000096014537   -0.0900
6      C6    -11.9794  -10.0118  -11.5246 C.2      1 ZINC000096014537    0.2500
7      O7    -11.8610  -11.2695  -11.9970 O.3      1 ZINC000096014537   -0.4800
8      C8    -11.1242   -9.5614  -10.5910 C.2      1 ZINC000096014537   -0.3900
9      C9    -10.2050  -10.4534   -9.9820 C.2      1 ZINC000096014537    0.4000
10     O10   -10.2563  -11.6444  -10.2309 O.2      1 ZINC000096014537   -0.4900
11     S11    -8.9886   -9.8384   -8.8654 S.3      1 ZINC000096014537   -0.1400
12     C12    -8.1480  -11.3824   -8.4346 C.3      1 ZINC000096014537   -0.1100
13     C13    -7.0182  -11.0891   -7.4455 C.3      1 ZINC000096014537    0.1300
14     N14    -6.3378  -12.3389   -7.0968 N.am     1 ZINC000096014537   -0.7300
15     C15    -5.3023  -12.3244   -6.2343 C.2      1 ZINC000096014537    0.5200
16     O16    -4.9336  -11.2769   -5.7469 O.2      1 ZINC000096014537   -0.5300
17     C17    -4.6024  -13.6100   -5.8756 C.3      1 ZINC000096014537   -0.1500
18     C18    -3.4726  -13.3167   -4.8865 C.3      1 ZINC000096014537    0.1400
19     N19    -2.7922  -14.5665   -4.5379 N.am     1 ZINC000096014537   -0.7400
20     C20    -1.7567  -14.5520   -3.6754 C.2      1 ZINC000096014537    0.5000
21     O21    -1.3306  -13.4964   -3.2570 O.2      1 ZINC000096014537   -0.5200
22     C22    -1.1282  -15.8476   -3.2308 C.3      1 ZINC000096014537    0.1000
23     H23    -0.0455  -15.7815   -3.3373 H        1 ZINC000096014537    0.1400
24     O24    -1.6219  -16.9182   -4.0382 O.3      1 ZINC000096014537   -0.5500
25     C25    -1.4815  -16.1093   -1.7653 C.3      1 ZINC000096014537   -0.0900
26     C26    -1.0936  -14.8929   -0.9221 C.3      1 ZINC000096014537   -0.1400
27     C27    -2.9860  -16.3579   -1.6399 C.3      1 ZINC000096014537   -0.1500
28     C28    -0.7182  -17.3386   -1.2683 C.3      1 ZINC000096014537    0.1500
29     O29    -1.0482  -17.5830    0.1004 O.3      1 ZINC000096014537   -0.7600
30     P30    -0.4260  -18.8021    0.9482 P.3      1 ZINC000096014537    2.2900
31     O31    -0.6909  -20.1322    0.2081 O.co2    1 ZINC000096014537   -1.1000
32     O32     1.0969  -18.5952    1.1061 O.co2    1 ZINC000096014537   -1.1100
33     O33    -1.1146  -18.8509    2.4027 O.3      1 ZINC000096014537   -1.0900
34     P34    -1.1776  -19.9538    3.5738 P.3      1 ZINC000096014537    2.2900
35     O35    -1.3534  -21.3568    2.9511 O.co2    1 ZINC000096014537   -1.1000
36     O36     0.1333  -19.9134    4.3904 O.co2    1 ZINC000096014537   -1.1000
37     O37    -2.4236  -19.6369    4.5430 O.3      1 ZINC000096014537   -0.7700
38     C38    -2.8104  -20.4940    5.6190 C.3      1 ZINC000096014537    0.1400
39     C39    -4.0260  -19.8995    6.3330 C.3      1 ZINC000096014537    0.0700
40     H40    -3.8191  -18.8755    6.6439 H        1 ZINC000096014537    0.1000
41     O41    -5.1843  -19.9390    5.4712 O.3      1 ZINC000096014537   -0.3500
42     C42    -6.3209  -19.8406    6.3568 C.3      1 ZINC000096014537    0.2600
43     H43    -6.4672  -18.8077    6.6730 H        1 ZINC000096014537    0.1200
44     N44    -7.5270  -20.3466    5.6969 N.pl3    1 ZINC000096014537   -0.4500
45     C45    -7.5687  -21.2347    4.6635 C.2      1 ZINC000096014537    0.2900
46     N46    -8.8038  -21.4635    4.3235 N.2      1 ZINC000096014537   -0.4800
47     C47    -9.6310  -20.7390    5.1148 C.ar     1 ZINC000096014537   -0.1000
48     C48   -11.0245  -20.5851    5.2090 C.ar     1 ZINC000096014537    0.5000
49     N49   -11.8720  -21.2740    4.3591 N.pl3    1 ZINC000096014537   -0.8300
50     N50   -11.5097  -19.7629    6.1337 N.ar     1 ZINC000096014537   -0.6000
51     C51   -10.7086  -19.1019    6.9492 C.ar     1 ZINC000096014537    0.3400
52     N52    -9.3980  -19.2145    6.8973 N.ar     1 ZINC000096014537   -0.5400
53     C53    -8.8219  -20.0182    6.0095 C.ar     1 ZINC000096014537    0.2900
54     C54    -5.9555  -20.7271    7.5680 C.3      1 ZINC000096014537    0.0600
55     H55    -6.3646  -21.7299    7.4445 H        1 ZINC000096014537    0.0700
56     O56    -6.4315  -20.1393    8.7805 O.3      1 ZINC000096014537   -0.5000
57     C57    -4.4092  -20.7652    7.5537 C.3      1 ZINC000096014537    0.1500
58     H58    -4.0535  -21.7871    7.4223 H        1 ZINC000096014537    0.0800
59     O59    -3.8834  -20.2043    8.7582 O.3      1 ZINC000096014537   -0.7200
60     P60    -2.9267  -21.0225    9.7619 P.3      1 ZINC000096014537    2.1200
61     O61    -3.6322  -22.3557   10.1852 O.co2    1 ZINC000096014537   -1.1900
62     O62    -1.5750  -21.3528    9.0419 O.co2    1 ZINC000096014537   -1.1700
63     O63    -2.6419  -20.1553   11.0351 O.co2    1 ZINC000096014537   -1.1700
64     H64   -15.2358   -6.5085  -15.8770 H        1 ZINC000096014537    0.0500
65     H65   -14.5791   -5.1598  -14.9188 H        1 ZINC000096014537    0.0500
66     H66   -14.0094   -5.4291  -16.5835 H        1 ZINC000096014537    0.0500
67     H67   -13.0027   -7.5865  -15.8901 H        1 ZINC000096014537    0.0600
68     H68   -12.3461   -6.2378  -14.9319 H        1 ZINC000096014537    0.0600
69     H69   -13.9420   -6.7576  -13.1067 H        1 ZINC000096014537    0.0700
70     H70   -14.5987   -8.1062  -14.0649 H        1 ZINC000096014537    0.0700
71     H71   -12.3657   -9.1842  -14.0780 H        1 ZINC000096014537    0.0700
72     H72   -11.7090   -7.8355  -13.1197 H        1 ZINC000096014537    0.0700
73     H73   -13.3050   -8.3553  -11.2945 H        1 ZINC000096014537    0.1000
74     H74   -13.9616   -9.7039  -12.2527 H        1 ZINC000096014537    0.1000
75     H75   -11.0882  -11.7752  -11.7102 H        1 ZINC000096014537    0.4200
76     H76   -11.1368   -8.5202  -10.3045 H        1 ZINC000096014537    0.1500
77     H77    -8.8610  -12.0692   -7.9785 H        1 ZINC000096014537    0.1000
78     H78    -7.7338  -11.8342   -9.3359 H        1 ZINC000096014537    0.1000
79     H79    -6.3052  -10.4023   -7.9016 H        1 ZINC000096014537    0.0800
80     H80    -7.4324  -10.6373   -6.5442 H        1 ZINC000096014537    0.0800
81     H81    -6.6327  -13.1767   -7.4867 H        1 ZINC000096014537    0.4000
82     H82    -5.3154  -14.2968   -5.4196 H        1 ZINC000096014537    0.1100
83     H83    -4.1882  -14.0618   -6.7769 H        1 ZINC000096014537    0.1000
84     H84    -2.7596  -12.6299   -5.3426 H        1 ZINC000096014537    0.0700
85     H85    -3.8868  -12.8649   -3.9853 H        1 ZINC000096014537    0.0800
86     H86    -3.0870  -15.4043   -4.9277 H        1 ZINC000096014537    0.4000
87     H87    -2.5807  -17.0357   -3.9924 H        1 ZINC000096014537    0.3700
88     H88    -1.6878  -14.0327   -1.2305 H        1 ZINC000096014537    0.0600
89     H89    -1.2812  -15.1056    0.1303 H        1 ZINC000096014537    0.0700
90     H90    -0.0355  -14.6739   -1.0655 H        1 ZINC000096014537    0.0600
91     H91    -3.2623  -17.2245   -2.2406 H        1 ZINC000096014537    0.0600
92     H92    -3.2376  -16.5443   -0.5959 H        1 ZINC000096014537    0.0800
93     H93    -3.5297  -15.4821   -1.9939 H        1 ZINC000096014537    0.0400
94     H94    -0.9946  -18.2052   -1.8690 H        1 ZINC000096014537    0.0600
95     H95     0.3535  -17.1615   -1.3577 H        1 ZINC000096014537    0.0500
96     H96    -3.0653  -21.4782    5.2259 H        1 ZINC000096014537    0.0600
97     H97    -1.9845  -20.5873    6.3241 H        1 ZINC000096014537    0.1000
98     H98    -6.7041  -21.6819    4.1955 H        1 ZINC000096014537    0.2300
99     H99   -11.5057  -21.8715    3.6885 H        1 ZINC000096014537    0.4200
100    H100  -12.8323  -21.1593    4.4340 H        1 ZINC000096014537    0.4000
101    H101  -11.1450  -18.4440    7.6861 H        1 ZINC000096014537    0.2000
102    H102   -7.3923  -20.0365    8.8170 H        1 ZINC000096014537    0.3500
@<TRIPOS>BOND
1     1     2     1
2     1     64    1
3     1     65    1
4     1     66    1
5     2     3     1
6     2     67    1
7     2     68    1
8     3     4     1
9     3     69    1
10    3     70    1
11    4     5     1
12    4     71    1
13    4     72    1
14    5     6     1
15    5     73    1
16    5     74    1
17    6     7     1
18    6     8     2
19    7     75    1
20    8     9     1
21    8     76    1
22    9     10    2
23    9     11    1
24    11    12    1
25    12    13    1
26    12    77    1
27    12    78    1
28    13    14    1
29    13    79    1
30    13    80    1
31    14    15    am
32    14    81    1
33    15    16    2
34    15    17    1
35    17    18    1
36    17    82    1
37    17    83    1
38    18    19    1
39    18    84    1
40    18    85    1
41    19    20    am
42    19    86    1
43    20    21    2
44    20    22    1
45    22    23    1
46    22    24    1
47    22    25    1
48    24    87    1
49    25    26    1
50    25    27    1
51    25    28    1
52    26    88    1
53    26    89    1
54    26    90    1
55    27    91    1
56    27    92    1
57    27    93    1
58    28    29    1
59    28    94    1
60    28    95    1
61    29    30    1
62    30    31    ar
63    30    32    ar
64    30    33    1
65    33    34    1
66    34    35    ar
67    34    36    ar
68    34    37    1
69    37    38    1
70    38    39    1
71    38    96    1
72    38    97    1
73    39    40    1
74    39    57    1
75    39    41    1
76    41    42    1
77    42    43    1
78    42    44    1
79    42    54    1
80    44    53    1
81    44    45    1
82    45    46    2
83    45    98    1
84    46    47    1
85    47    53    ar
86    47    48    ar
87    48    49    1
88    48    50    ar
89    49    99    1
90    49    100   1
91    50    51    ar
92    51    52    ar
93    51    101   1
94    52    53    ar
95    54    55    1
96    54    56    1
97    54    57    1
98    56    102   1
99    57    58    1
100   57    59    1
101   59    60    1
102   60    61    ar
103   60    62    ar
104   60    63    ar
@<TRIPOS>SUBSTRUCTURE
1   ZINC000096014537 1     RESIDUE    1   A     ZIN   1
@<TRIPOS>MOLECULE
ZINC000096014545
107   109   1     0     0
SMALL
USER_CHARGES
@<TRIPOS>ATOM
1      C1     -2.5830  -11.1512  -28.4114 C.3      1 ZINC000096014545   -0.1500
2      C2     -2.2272  -12.1585  -27.3162 C.3      1 ZINC000096014545   -0.1300
3      C3     -3.0209  -11.8355  -26.0487 C.3      1 ZINC000096014545   -0.1200
4      C4     -2.6651  -12.8428  -24.9535 C.3      1 ZINC000096014545   -0.1200
5      C5     -3.4588  -12.5197  -23.6860 C.3      1 ZINC000096014545   -0.1200
6      C6     -3.1030  -13.5271  -22.5908 C.3      1 ZINC000096014545   -0.1200
7      C7     -3.8968  -13.2040  -21.3233 C.3      1 ZINC000096014545   -0.1000
8      C8     -3.5463  -14.1962  -20.2445 C.2      1 ZINC000096014545   -0.0500
9      C9     -3.1125  -13.7679  -19.0627 C.2      1 ZINC000096014545   -0.2200
10     C10    -2.7704  -14.7364  -18.0097 C.2      1 ZINC000096014545    0.3800
11     O11    -2.8844  -15.9293  -18.2201 O.2      1 ZINC000096014545   -0.4500
12     S12    -2.1955  -14.1689  -16.4438 S.3      1 ZINC000096014545   -0.1400
13     C13    -1.9501  -15.7543  -15.6057 C.3      1 ZINC000096014545   -0.1100
14     C14    -1.4376  -15.5065  -14.1856 C.3      1 ZINC000096014545    0.1400
15     N15    -1.2389  -16.7897  -13.5072 N.am     1 ZINC000096014545   -0.7300
16     C16    -0.7888  -16.8179  -12.2372 C.2      1 ZINC000096014545    0.5200
17     O17    -0.5481  -15.7811  -11.6559 O.2      1 ZINC000096014545   -0.5300
18     C18    -0.5844  -18.1379  -11.5394 C.3      1 ZINC000096014545   -0.1500
19     C19    -0.0719  -17.8901  -10.1192 C.3      1 ZINC000096014545    0.1400
20     N20     0.1268  -19.1733   -9.4409 N.am     1 ZINC000096014545   -0.7400
21     C21     0.5769  -19.2016   -8.1708 C.2      1 ZINC000096014545    0.5000
22     O22     0.9058  -18.1718   -7.6210 O.2      1 ZINC000096014545   -0.5300
23     C23     0.6716  -20.5127   -7.4340 C.3      1 ZINC000096014545    0.1000
24     H24     1.6502  -20.5937   -6.9608 H        1 ZINC000096014545    0.1400
25     O25     0.4974  -21.5908   -8.3556 O.3      1 ZINC000096014545   -0.5500
26     C26    -0.4194  -20.5759   -6.3632 C.3      1 ZINC000096014545   -0.0900
27     C27    -0.1478  -19.5146   -5.2951 C.3      1 ZINC000096014545   -0.1400
28     C28    -1.7822  -20.3138   -7.0075 C.3      1 ZINC000096014545   -0.1400
29     C29    -0.4194  -21.9623   -5.7162 C.3      1 ZINC000096014545    0.1500
30     O30    -1.4384  -22.0213   -4.7161 O.3      1 ZINC000096014545   -0.7700
31     P31    -1.7232  -23.3356   -3.8308 P.3      1 ZINC000096014545    2.2900
32     O32    -1.9804  -24.5395   -4.7644 O.co2    1 ZINC000096014545   -1.1000
33     O33    -0.4980  -23.6298   -2.9368 O.co2    1 ZINC000096014545   -1.1100
34     O34    -3.0167  -23.0888   -2.9045 O.3      1 ZINC000096014545   -1.0900
35     P35    -3.9835  -24.0547   -2.0533 P.3      1 ZINC000096014545    2.2900
36     O36    -4.2483  -25.3510   -2.8511 O.co2    1 ZINC000096014545   -1.1000
37     O37    -3.3069  -24.4060   -0.7095 O.co2    1 ZINC000096014545   -1.1000
38     O38    -5.3793  -23.3035   -1.7713 O.3      1 ZINC000096014545   -0.7700
39     C39    -6.4875  -23.9361   -1.1280 C.3      1 ZINC000096014545    0.1400
40     C40    -7.6477  -22.9447   -1.0188 C.3      1 ZINC000096014545    0.0700
41     H41    -7.3196  -22.0309   -0.5235 H        1 ZINC000096014545    0.1000
42     O42    -8.1774  -22.6445   -2.3284 O.3      1 ZINC000096014545   -0.3500
43     C43    -9.5098  -22.1391   -2.0932 C.3      1 ZINC000096014545    0.2600
44     H44    -9.4690  -21.1015   -1.7619 H        1 ZINC000096014545    0.1200
45     N45   -10.3207  -22.2542   -3.3078 N.pl3    1 ZINC000096014545   -0.4500
46     C46   -10.1162  -23.1274   -4.3345 C.2      1 ZINC000096014545    0.2900
47     N47   -11.0239  -22.9563   -5.2512 N.2      1 ZINC000096014545   -0.4800
48     C48   -11.8663  -21.9654   -4.8722 C.ar     1 ZINC000096014545   -0.1000
49     C49   -13.0002  -21.3609   -5.4408 C.ar     1 ZINC000096014545    0.5000
50     N50   -13.4813  -21.7745   -6.6707 N.pl3    1 ZINC000096014545   -0.8300
51     N51   -13.6001  -20.3830   -4.7698 N.ar     1 ZINC000096014545   -0.6000
52     C52   -13.1484  -19.9822   -3.5956 C.ar     1 ZINC000096014545    0.3400
53     N53   -12.0902  -20.5186   -3.0250 N.ar     1 ZINC000096014545   -0.5400
54     C54   -11.4287  -21.5069   -3.6180 C.ar     1 ZINC000096014545    0.2900
55     C55   -10.0814  -23.0386   -0.9749 C.3      1 ZINC000096014545    0.0600
56     H56   -10.6602  -23.8576   -1.4019 H        1 ZINC000096014545    0.0700
57     O57   -10.8875  -22.2716   -0.0783 O.3      1 ZINC000096014545   -0.5000
58     C58    -8.8270  -23.5798   -0.2492 C.3      1 ZINC000096014545    0.1500
59     H59    -8.7852  -24.6668   -0.3181 H        1 ZINC000096014545    0.0800
60     O60    -8.8220  -23.1654    1.1184 O.3      1 ZINC000096014545   -0.7200
61     P61    -8.7888  -24.2031    2.3489 P.3      1 ZINC000096014545    2.1200
62     O62    -9.9800  -25.2118    2.2136 O.co2    1 ZINC000096014545   -1.1900
63     O63    -7.4340  -24.9897    2.3323 O.co2    1 ZINC000096014545   -1.1700
64     O64    -8.9202  -23.4177    3.6981 O.co2    1 ZINC000096014545   -1.1700
65     H65    -3.6500  -11.2097  -28.6261 H        1 ZINC000096014545    0.0500
66     H66    -2.3349  -10.1449  -28.0740 H        1 ZINC000096014545    0.0500
67     H67    -2.0175  -11.3814  -29.3144 H        1 ZINC000096014545    0.0500
68     H68    -2.4753  -13.1649  -27.6536 H        1 ZINC000096014545    0.0600
69     H69    -1.1601  -12.1000  -27.1015 H        1 ZINC000096014545    0.0600
70     H70    -2.7728  -10.8291  -25.7113 H        1 ZINC000096014545    0.0600
71     H71    -4.0879  -11.8940  -26.2634 H        1 ZINC000096014545    0.0600
72     H72    -2.9132  -13.8491  -25.2909 H        1 ZINC000096014545    0.0600
73     H73    -1.5981  -12.7843  -24.7388 H        1 ZINC000096014545    0.0600
74     H74    -3.2108  -11.5134  -23.3486 H        1 ZINC000096014545    0.0600
75     H75    -4.5259  -12.5782  -23.9007 H        1 ZINC000096014545    0.0600
76     H76    -3.3511  -14.5334  -22.9282 H        1 ZINC000096014545    0.0700
77     H77    -2.0360  -13.4686  -22.3761 H        1 ZINC000096014545    0.0700
78     H78    -3.6487  -12.1977  -20.9859 H        1 ZINC000096014545    0.0800
79     H79    -4.9638  -13.2625  -21.5380 H        1 ZINC000096014545    0.0900
80     H80    -3.6475  -15.2551  -20.4313 H        1 ZINC000096014545    0.1300
81     H81    -3.0113  -12.7090  -18.8760 H        1 ZINC000096014545    0.1400
82     H82    -2.8970  -16.2923  -15.5615 H        1 ZINC000096014545    0.1000
83     H83    -1.2205  -16.3476  -16.1569 H        1 ZINC000096014545    0.1000
84     H84    -0.4906  -14.9684  -14.2298 H        1 ZINC000096014545    0.0800
85     H85    -2.1671  -14.9132  -13.6343 H        1 ZINC000096014545    0.0800
86     H86    -1.4313  -17.6189  -13.9721 H        1 ZINC000096014545    0.4000
87     H87    -1.5313  -18.6760  -11.4952 H        1 ZINC000096014545    0.1100
88     H88     0.1452  -18.7312  -12.0906 H        1 ZINC000096014545    0.1000
89     H89     0.8751  -17.3521  -10.1634 H        1 ZINC000096014545    0.0700
90     H90    -0.8014  -17.2968   -9.5680 H        1 ZINC000096014545    0.0800
91     H91    -0.0656  -20.0026   -9.9058 H        1 ZINC000096014545    0.4000
92     H92    -0.3537  -21.5822   -8.8146 H        1 ZINC000096014545    0.3700
93     H93    -0.2249  -18.5228   -5.7405 H        1 ZINC000096014545    0.0600
94     H94    -0.8797  -19.6106   -4.4931 H        1 ZINC000096014545    0.0800
95     H95     0.8547  -19.6544   -4.8907 H        1 ZINC000096014545    0.0500
96     H96    -1.9757  -21.0699   -7.7685 H        1 ZINC000096014545    0.0500
97     H97    -2.5595  -20.3588   -6.2447 H        1 ZINC000096014545    0.0800
98     H98    -1.7822  -19.3261   -7.4685 H        1 ZINC000096014545    0.0400
99     H99    -0.6129  -22.7184   -6.4771 H        1 ZINC000096014545    0.0600
100    H100    0.5515  -22.1490   -5.2571 H        1 ZINC000096014545    0.0500
101    H101   -6.8020  -24.8005   -1.7129 H        1 ZINC000096014545    0.0600
102    H102   -6.1917  -24.2606   -0.1304 H        1 ZINC000096014545    0.1000
103    H103   -9.3181  -23.8536   -4.3806 H        1 ZINC000096014545    0.2300
104    H104  -13.0349  -22.4895   -7.1507 H        1 ZINC000096014545    0.4200
105    H105  -14.2650  -21.3494   -7.0528 H        1 ZINC000096014545    0.4000
106    H106  -13.6662  -19.1842   -3.0843 H        1 ZINC000096014545    0.2000
107    H107  -11.6563  -21.8593   -0.4954 H        1 ZINC000096014545    0.3500
@<TRIPOS>BOND
1     1     2     1
2     1     65    1
3     1     66    1
4     1     67    1
5     2     3     1
6     2     68    1
7     2     69    1
8     3     4     1
9     3     70    1
10    3     71    1
11    4     5     1
12    4     72    1
13    4     73    1
14    5     6     1
15    5     74    1
16    5     75    1
17    6     7     1
18    6     76    1
19    6     77    1
20    7     8     1
21    7     78    1
22    7     79    1
23    8     9     2
24    8     80    1
25    9     10    1
26    9     81    1
27    10    11    2
28    10    12    1
29    12    13    1
30    13    14    1
31    13    82    1
32    13    83    1
33    14    15    1
34    14    84    1
35    14    85    1
36    15    16    am
37    15    86    1
38    16    17    2
39    16    18    1
40    18    19    1
41    18    87    1
42    18    88    1
43    19    20    1
44    19    89    1
45    19    90    1
46    20    21    am
47    20    91    1
48    21    22    2
49    21    23    1
50    23    24    1
51    23    25    1
52    23    26    1
53    25    92    1
54    26    27    1
55    26    28    1
56    26    29    1
57    27    93    1
58    27    94    1
59    27    95    1
60    28    96    1
61    28    97    1
62    28    98    1
63    29    30    1
64    29    99    1
65    29    100   1
66    30    31    1
67    31    32    ar
68    31    33    ar
69    31    34    1
70    34    35    1
71    35    36    ar
72    35    37    ar
73    35    38    1
74    38    39    1
75    39    40    1
76    39    101   1
77    39    102   1
78    40    41    1
79    40    58    1
80    40    42    1
81    42    43    1
82    43    44    1
83    43    45    1
84    43    55    1
85    45    54    1
86    45    46    1
87    46    47    2
88    46    103   1
89    47    48    1
90    48    54    ar
91    48    49    ar
92    49    50    1
93    49    51    ar
94    50    104   1
95    50    105   1
96    51    52    ar
97    52    53    ar
98    52    106   1
99    53    54    ar
100   55    56    1
101   55    57    1
102   55    58    1
103   57    107   1
104   58    59    1
105   58    60    1
106   60    61    1
107   61    62    ar
108   61    63    ar
109   61    64    ar
@<TRIPOS>SUBSTRUCTURE
1   ZINC000096014545 1     RESIDUE    1   A     ZIN   1
@<TRIPOS>MOLECULE
ZINC000096014558
95    97    1     0     0
SMALL
USER_CHARGES
@<TRIPOS>ATOM
1      C1     11.0155   -7.0583  -15.4312 C.3      1 ZINC000096014558   -0.1800
2      C2     10.3238   -8.0788  -14.5251 C.3      1 ZINC000096014558    0.1400
3      C3      9.3384   -8.9085  -15.3506 C.3      1 ZINC000096014558   -0.1500
4      O4     11.3038   -8.9419  -13.9447 O.3      1 ZINC000096014558   -0.5500
5      C5      9.5683   -7.3456  -13.4149 C.3      1 ZINC000096014558   -0.1700
6      C6      8.8870   -8.3508  -12.5224 C.2      1 ZINC000096014558    0.3300
7      O7      8.9951   -9.5373  -12.7518 O.2      1 ZINC000096014558   -0.4200
8      S8      7.9604   -7.8186  -11.1848 S.3      1 ZINC000096014558   -0.1300
9      C9      7.4168   -9.4137  -10.5244 C.3      1 ZINC000096014558   -0.1100
10     C10     6.5473   -9.1836   -9.2867 C.3      1 ZINC000096014558    0.1400
11     N11     6.1072  -10.4747   -8.7522 N.am     1 ZINC000096014558   -0.7300
12     C12     5.3252  -10.5187   -7.6554 C.2      1 ZINC000096014558    0.5200
13     O13     4.9857   -9.4895   -7.1109 O.2      1 ZINC000096014558   -0.5300
14     C14     4.8725  -11.8468   -7.1055 C.3      1 ZINC000096014558   -0.1500
15     C15     4.0030  -11.6167   -5.8678 C.3      1 ZINC000096014558    0.1400
16     N16     3.5630  -12.9078   -5.3333 N.am     1 ZINC000096014558   -0.7400
17     C17     2.7810  -12.9518   -4.2365 C.2      1 ZINC000096014558    0.5000
18     O18     2.5179  -11.9303   -3.6379 O.2      1 ZINC000096014558   -0.5300
19     C19     2.2334  -14.2702   -3.7539 C.3      1 ZINC000096014558    0.1000
20     H20     2.4073  -14.3655   -2.6821 H        1 ZINC000096014558    0.1400
21     O21     2.8898  -15.3383   -4.4398 O.3      1 ZINC000096014558   -0.5500
22     C22     0.7305  -14.3315   -4.0342 C.3      1 ZINC000096014558   -0.0900
23     C23     0.0101  -13.2825   -3.1848 C.3      1 ZINC000096014558   -0.1400
24     C24     0.4762  -14.0499   -5.5164 C.3      1 ZINC000096014558   -0.1400
25     C25     0.2023  -15.7235   -3.6817 C.3      1 ZINC000096014558    0.1500
26     O26    -1.2013  -15.7808   -3.9434 O.3      1 ZINC000096014558   -0.7700
27     P27    -2.0881  -17.0998   -3.6866 P.3      1 ZINC000096014558    2.2900
28     O28    -1.4695  -18.2928   -4.4490 O.co2    1 ZINC000096014558   -1.1000
29     O29    -2.1172  -17.4144   -2.1743 O.co2    1 ZINC000096014558   -1.1100
30     O30    -3.5892  -16.8478   -4.2114 O.3      1 ZINC000096014558   -1.0900
31     P31    -4.8398  -17.8111   -4.5280 P.3      1 ZINC000096014558    2.2900
32     O32    -4.3366  -19.0977   -5.2199 O.co2    1 ZINC000096014558   -1.1000
33     O33    -5.5519  -18.1812   -3.2078 O.co2    1 ZINC000096014558   -1.1000
34     O34    -5.8725  -17.0482   -5.4993 O.3      1 ZINC000096014558   -0.7700
35     C35    -7.0343  -17.6750   -6.0465 C.3      1 ZINC000096014558    0.1400
36     C36    -7.7906  -16.6727   -6.9207 C.3      1 ZINC000096014558    0.0700
37     H37    -8.0092  -15.7666   -6.3556 H        1 ZINC000096014558    0.1000
38     O38    -7.0222  -16.3555   -8.1017 O.3      1 ZINC000096014558   -0.3500
39     C39    -7.9798  -15.8386   -9.0513 C.3      1 ZINC000096014558    0.2600
40     H40    -8.2291  -14.8044   -8.8139 H        1 ZINC000096014558    0.1200
41     N41    -7.4499  -15.9347  -10.4137 N.pl3    1 ZINC000096014558   -0.4500
42     C42    -6.4905  -16.8009  -10.8468 C.2      1 ZINC000096014558    0.2900
43     N43    -6.2606  -16.6125  -12.1138 N.2      1 ZINC000096014558   -0.4800
44     C44    -7.0555  -15.6162  -12.5731 C.ar     1 ZINC000096014558   -0.1000
45     C45    -7.2410  -14.9952  -13.8197 C.ar     1 ZINC000096014558    0.5000
46     N46    -6.5091  -15.3930  -14.9248 N.pl3    1 ZINC000096014558   -0.8300
47     N47    -8.1361  -14.0171  -13.9131 N.ar     1 ZINC000096014558   -0.6000
48     C48    -8.8392  -13.6313  -12.8642 C.ar     1 ZINC000096014558    0.3400
49     N49    -8.6989  -14.1835  -11.6774 N.ar     1 ZINC000096014558   -0.5400
50     C50    -7.8324  -15.1733  -11.4891 C.ar     1 ZINC000096014558    0.3000
51     C51    -9.2225  -16.7419   -8.8901 C.3      1 ZINC000096014558    0.0600
52     H52    -9.2037  -17.5511   -9.6201 H        1 ZINC000096014558    0.0700
53     O53   -10.4203  -15.9746   -9.0258 O.3      1 ZINC000096014558   -0.5000
54     C54    -9.0966  -17.3023   -7.4538 C.3      1 ZINC000096014558    0.1500
55     H55    -9.0148  -18.3890   -7.4736 H        1 ZINC000096014558    0.0800
56     O56   -10.2144  -16.9000   -6.6596 O.3      1 ZINC000096014558   -0.7200
57     P57   -11.2020  -17.9487   -5.9406 P.3      1 ZINC000096014558    2.1200
58     O58   -11.7733  -18.9438   -7.0074 O.co2    1 ZINC000096014558   -1.1900
59     O59   -10.4103  -18.7490   -4.8511 O.co2    1 ZINC000096014558   -1.1700
60     O60   -12.3835  -17.1739   -5.2638 O.co2    1 ZINC000096014558   -1.1700
61     H61    10.2680   -6.4000  -15.8739 H        1 ZINC000096014558    0.0700
62     H62    11.7175   -6.4672  -14.8430 H        1 ZINC000096014558    0.0600
63     H63    11.5537   -7.5806  -16.2221 H        1 ZINC000096014558    0.0700
64     H64     9.8766   -9.4308  -16.1415 H        1 ZINC000096014558    0.0600
65     H65     8.8456   -9.6355  -14.7051 H        1 ZINC000096014558    0.0800
66     H66     8.5909   -8.2502  -15.7933 H        1 ZINC000096014558    0.0700
67     H67    11.9628   -8.4827  -13.4062 H        1 ZINC000096014558    0.3700
68     H68    10.2703   -6.7546  -12.8267 H        1 ZINC000096014558    0.1100
69     H69     8.8208   -6.6873  -13.8576 H        1 ZINC000096014558    0.1100
70     H70     6.8380   -9.9423  -11.2818 H        1 ZINC000096014558    0.1000
71     H71     8.2876  -10.0096  -10.2510 H        1 ZINC000096014558    0.1000
72     H72     7.1260   -8.6550   -8.5293 H        1 ZINC000096014558    0.0800
73     H73     5.6765   -8.5877   -9.5601 H        1 ZINC000096014558    0.0800
74     H74     6.3787  -11.2978   -9.1876 H        1 ZINC000096014558    0.4000
75     H75     4.2938  -12.3754   -7.8630 H        1 ZINC000096014558    0.1100
76     H76     5.7433  -12.4426   -6.8321 H        1 ZINC000096014558    0.1000
77     H77     4.5817  -11.0880   -5.1104 H        1 ZINC000096014558    0.0700
78     H78     3.1322  -11.0208   -6.1412 H        1 ZINC000096014558    0.0800
79     H79     3.8345  -13.7309   -5.7687 H        1 ZINC000096014558    0.4000
80     H80     2.7775  -15.3170   -5.4000 H        1 ZINC000096014558    0.3700
81     H81     0.3295  -12.2861   -3.4901 H        1 ZINC000096014558    0.0600
82     H82    -1.0666  -13.3780   -3.3256 H        1 ZINC000096014558    0.0800
83     H83     0.2541  -13.4362   -2.1336 H        1 ZINC000096014558    0.0500
84     H84     0.9894  -14.7972   -6.1215 H        1 ZINC000096014558    0.0500
85     H85    -0.5945  -14.0935   -5.7160 H        1 ZINC000096014558    0.0800
86     H86     0.8525  -13.0582   -5.7675 H        1 ZINC000096014558    0.0400
87     H87     0.7156  -16.4709   -4.2868 H        1 ZINC000096014558    0.0600
88     H88     0.3835  -15.9242   -2.6257 H        1 ZINC000096014558    0.0500
89     H89    -6.7345  -18.5309   -6.6512 H        1 ZINC000096014558    0.0600
90     H90    -7.6813  -18.0112   -5.2363 H        1 ZINC000096014558    0.1000
91     H91    -5.9940  -17.5348  -10.2294 H        1 ZINC000096014558    0.2300
92     H92    -5.8590  -16.1084  -14.8441 H        1 ZINC000096014558    0.4200
93     H93    -6.6462  -14.9565  -15.7801 H        1 ZINC000096014558    0.4000
94     H94    -9.5561  -12.8325  -12.9843 H        1 ZINC000096014558    0.2000
95     H95   -10.5202  -15.5507   -9.8892 H        1 ZINC000096014558    0.3500
@<TRIPOS>BOND
1     1     2     1
2     1     61    1
3     1     62    1
4     1     63    1
5     2     3     1
6     2     4     1
7     2     5     1
8     3     64    1
9     3     65    1
10    3     66    1
11    4     67    1
12    5     6     1
13    5     68    1
14    5     69    1
15    6     7     2
16    6     8     1
17    8     9     1
18    9     10    1
19    9     70    1
20    9     71    1
21    10    11    1
22    10    72    1
23    10    73    1
24    11    12    am
25    11    74    1
26    12    13    2
27    12    14    1
28    14    15    1
29    14    75    1
30    14    76    1
31    15    16    1
32    15    77    1
33    15    78    1
34    16    17    am
35    16    79    1
36    17    18    2
37    17    19    1
38    19    20    1
39    19    21    1
40    19    22    1
41    21    80    1
42    22    23    1
43    22    24    1
44    22    25    1
45    23    81    1
46    23    82    1
47    23    83    1
48    24    84    1
49    24    85    1
50    24    86    1
51    25    26    1
52    25    87    1
53    25    88    1
54    26    27    1
55    27    28    ar
56    27    29    ar
57    27    30    1
58    30    31    1
59    31    32    ar
60    31    33    ar
61    31    34    1
62    34    35    1
63    35    36    1
64    35    89    1
65    35    90    1
66    36    37    1
67    36    54    1
68    36    38    1
69    38    39    1
70    39    40    1
71    39    41    1
72    39    51    1
73    41    50    1
74    41    42    1
75    42    43    2
76    42    91    1
77    43    44    1
78    44    50    ar
79    44    45    ar
80    45    46    1
81    45    47    ar
82    46    92    1
83    46    93    1
84    47    48    ar
85    48    49    ar
86    48    94    1
87    49    50    ar
88    51    52    1
89    51    53    1
90    51    54    1
91    53    95    1
92    54    55    1
93    54    56    1
94    56    57    1
95    57    58    ar
96    57    59    ar
97    57    60    ar
@<TRIPOS>SUBSTRUCTURE
1   ZINC000096014558 1     RESIDUE    1   A     ZIN   1
@<TRIPOS>MOLECULE
ZINC000197688160
102   104   1     0     0
SMALL
USER_CHARGES
@<TRIPOS>ATOM
1      C1    -13.2952  -15.5525   18.7699 C.3      1 ZINC000197688160   -0.1600
2      C2    -12.5372  -16.0176   17.5249 C.3      1 ZINC000197688160   -0.1200
3      C3    -11.2913  -15.1505   17.3328 C.3      1 ZINC000197688160   -0.1100
4      C4    -10.5447  -15.6086   16.1065 C.2      1 ZINC000197688160   -0.1000
5      C5    -10.2272  -14.7318   15.1526 C.2      1 ZINC000197688160   -0.1600
6      C6    -10.4723  -13.3040   15.3601 C.2      1 ZINC000197688160   -0.0200
7      C7    -10.2459  -12.4267   14.3573 C.2      1 ZINC000197688160   -0.2200
8      C8    -10.4909  -10.9996   14.5646 C.2      1 ZINC000197688160    0.3800
9      O9    -10.8989  -10.6020   15.6408 O.2      1 ZINC000197688160   -0.4500
10     S10   -10.1957   -9.8560   13.2572 S.3      1 ZINC000197688160   -0.1400
11     C11   -10.6603   -8.3119   14.0794 C.3      1 ZINC000197688160   -0.1100
12     C12   -10.4805   -7.1430   13.1086 C.3      1 ZINC000197688160    0.1400
13     N13   -10.8565   -5.8932   13.7741 N.am     1 ZINC000197688160   -0.7300
14     C14   -10.7780   -4.7246   13.1073 C.2      1 ZINC000197688160    0.5200
15     O15   -10.3962   -4.7077   11.9563 O.2      1 ZINC000197688160   -0.5300
16     C16   -11.1648   -3.4390   13.7919 C.3      1 ZINC000197688160   -0.1500
17     C17   -10.9850   -2.2702   12.8211 C.3      1 ZINC000197688160    0.1400
18     N18   -11.3610   -1.0204   13.4867 N.am     1 ZINC000197688160   -0.7400
19     C19   -11.2825    0.1482   12.8198 C.2      1 ZINC000197688160    0.5000
20     O20   -10.8089    0.1790   11.7038 O.2      1 ZINC000197688160   -0.5300
21     C21   -11.7834    1.4167   13.4610 C.3      1 ZINC000197688160    0.1000
22     H22   -10.9981    2.1721   13.4340 H        1 ZINC000197688160    0.1400
23     O23   -12.1451    1.1538   14.8182 O.3      1 ZINC000197688160   -0.5500
24     C24   -13.0071    1.9258   12.6966 C.3      1 ZINC000197688160   -0.0900
25     C25   -12.5941    2.3200   11.2771 C.3      1 ZINC000197688160   -0.1400
26     C26   -14.0640    0.8213   12.6321 C.3      1 ZINC000197688160   -0.1400
27     C27   -13.5870    3.1452   13.4162 C.3      1 ZINC000197688160    0.1500
28     O28   -14.7299    3.6206   12.7023 O.3      1 ZINC000197688160   -0.7700
29     P29   -15.5922    4.8949   13.1763 P.3      1 ZINC000197688160    2.2900
30     O30   -16.0639    4.6848   14.6324 O.co2    1 ZINC000197688160   -1.1000
31     O31   -14.7185    6.1666   13.0964 O.co2    1 ZINC000197688160   -1.1100
32     O32   -16.8736    5.0630   12.2161 O.3      1 ZINC000197688160   -1.0900
33     P33   -18.2443    5.9016   12.3168 P.3      1 ZINC000197688160    2.2900
34     O34   -18.7784    5.8434   13.7654 O.co2    1 ZINC000197688160   -1.1000
35     O35   -17.9784    7.3721   11.9246 O.co2    1 ZINC000197688160   -1.1100
36     O36   -19.3356    5.2683   11.3167 O.3      1 ZINC000197688160   -0.7700
37     C37   -20.6882    5.7245   11.2508 C.3      1 ZINC000197688160    0.1400
38     C38   -21.4500    4.9117   10.2021 C.3      1 ZINC000197688160    0.0900
39     H39   -20.9306    4.9476    9.2445 H        1 ZINC000197688160    0.0800
40     O40   -21.6034    3.5440   10.6399 O.3      1 ZINC000197688160   -0.3500
41     C41   -22.7096    3.0207    9.8729 C.3      1 ZINC000197688160    0.2600
42     H42   -22.3851    2.7665    8.8638 H        1 ZINC000197688160    0.1100
43     N43   -23.2790    1.8450   10.5359 N.pl3    1 ZINC000197688160   -0.4600
44     C44   -23.1962    1.5487   11.8640 C.2      1 ZINC000197688160    0.2900
45     N45   -23.8133    0.4295   12.1092 N.2      1 ZINC000197688160   -0.4800
46     C46   -24.3300   -0.0623   10.9575 C.ar     1 ZINC000197688160   -0.1000
47     C47   -25.0744   -1.2042   10.6167 C.ar     1 ZINC000197688160    0.5000
48     N48   -25.4356   -2.1279   11.5817 N.pl3    1 ZINC000197688160   -0.8200
49     N49   -25.4239   -1.3764    9.3459 N.ar     1 ZINC000197688160   -0.6000
50     C50   -25.0840   -0.5001    8.4185 C.ar     1 ZINC000197688160    0.3500
51     N51   -24.3872    0.5831    8.6912 N.ar     1 ZINC000197688160   -0.5500
52     C52   -23.9984    0.8430    9.9351 C.ar     1 ZINC000197688160    0.3000
53     C53   -23.7408    4.1703    9.8325 C.3      1 ZINC000197688160    0.0900
54     H54   -24.4727    4.0550   10.6319 H        1 ZINC000197688160    0.0800
55     O55   -24.3922    4.2143    8.5614 O.3      1 ZINC000197688160   -0.5000
56     C56   -22.8921    5.4449   10.0519 C.3      1 ZINC000197688160   -0.0800
57     H57   -23.2041    5.9597   10.9607 H        1 ZINC000197688160    0.1100
58     C58   -23.0032    6.3774    8.8441 C.3      1 ZINC000197688160   -0.7100
59     P59   -24.6088    7.2397    8.8878 P.3      1 ZINC000197688160    2.2600
60     O60   -25.7493    6.2007    8.9709 O.2      1 ZINC000197688160   -1.0800
61     O61   -24.6633    8.1643   10.1243 O.3      1 ZINC000197688160   -1.1000
62     O62   -24.7815    8.1204    7.5511 O.3      1 ZINC000197688160   -0.9100
63     H63   -14.1828  -16.1702   18.9068 H        1 ZINC000197688160    0.0600
64     H64   -12.6501  -15.6447   19.6436 H        1 ZINC000197688160    0.0500
65     H65   -13.5928  -14.5112   18.6463 H        1 ZINC000197688160    0.0600
66     H66   -12.2397  -17.0588   17.6486 H        1 ZINC000197688160    0.0600
67     H67   -13.1823  -15.9253   16.6512 H        1 ZINC000197688160    0.0600
68     H68   -11.5889  -14.1092   17.2092 H        1 ZINC000197688160    0.0800
69     H69   -10.6462  -15.2428   18.2065 H        1 ZINC000197688160    0.0800
70     H70   -10.2667  -16.6468   16.0000 H        1 ZINC000197688160    0.1200
71     H71    -9.7892  -15.0756   14.2273 H        1 ZINC000197688160    0.1300
72     H72   -10.8342  -12.9513   16.3146 H        1 ZINC000197688160    0.1300
73     H73    -9.8840  -12.7794   13.4027 H        1 ZINC000197688160    0.1400
74     H74   -11.7027   -8.3666   14.3931 H        1 ZINC000197688160    0.1000
75     H75   -10.0256   -8.1599   14.9525 H        1 ZINC000197688160    0.1000
76     H76    -9.4380   -7.0883   12.7950 H        1 ZINC000197688160    0.0800
77     H77   -11.1151   -7.2949   12.2356 H        1 ZINC000197688160    0.0800
78     H78   -11.1619   -5.9068   14.6947 H        1 ZINC000197688160    0.4000
79     H79   -12.2072   -3.4937   14.1056 H        1 ZINC000197688160    0.1100
80     H80   -10.5302   -3.2871   14.6650 H        1 ZINC000197688160    0.1000
81     H81    -9.9425   -2.2154   12.5075 H        1 ZINC000197688160    0.0700
82     H82   -11.6196   -2.4221   11.9481 H        1 ZINC000197688160    0.0800
83     H83   -11.6664   -1.0339   14.4072 H        1 ZINC000197688160    0.4000
84     H84   -12.8407    0.4896   14.9183 H        1 ZINC000197688160    0.3700
85     H85   -12.3094    1.4272   10.7204 H        1 ZINC000197688160    0.0600
86     H86   -13.4309    2.8083   10.7776 H        1 ZINC000197688160    0.0700
87     H87   -11.7477    3.0054   11.3221 H        1 ZINC000197688160    0.0500
88     H88   -14.3582    0.5405   13.6434 H        1 ZINC000197688160    0.0500
89     H89   -14.9357    1.1840   12.0875 H        1 ZINC000197688160    0.0800
90     H90   -13.6508   -0.0473   12.1194 H        1 ZINC000197688160    0.0500
91     H91   -13.8813    2.8643   14.4275 H        1 ZINC000197688160    0.0600
92     H92   -12.8341    3.9320   13.4622 H        1 ZINC000197688160    0.0500
93     H93   -21.1624    5.5971   12.2240 H        1 ZINC000197688160    0.0700
94     H94   -20.7030    6.7788   10.9746 H        1 ZINC000197688160    0.0700
95     H95   -22.6922    2.1533   12.6034 H        1 ZINC000197688160    0.2300
96     H96   -25.1749   -1.9910   12.5059 H        1 ZINC000197688160    0.4200
97     H97   -25.9496   -2.9124   11.3340 H        1 ZINC000197688160    0.4000
98     H98   -25.3887   -0.6788    7.3979 H        1 ZINC000197688160    0.2000
99     H99   -24.8904    3.4138    8.3469 H        1 ZINC000197688160    0.3700
100    H100  -22.1965    7.1097    8.8751 H        1 ZINC000197688160    0.0800
101    H101  -22.9291    5.7938    7.9265 H        1 ZINC000197688160    0.0800
102    H102  -25.6154    8.6079    7.5063 H        1 ZINC000197688160    0.4000
@<TRIPOS>BOND
1     1     2     1
2     1     63    1
3     1     64    1
4     1     65    1
5     2     3     1
6     2     66    1
7     2     67    1
8     3     4     1
9     3     68    1
10    3     69    1
11    4     5     2
12    4     70    1
13    5     6     1
14    5     71    1
15    6     7     2
16    6     72    1
17    7     8     1
18    7     73    1
19    8     9     2
20    8     10    1
21    10    11    1
22    11    12    1
23    11    74    1
24    11    75    1
25    12    13    1
26    12    76    1
27    12    77    1
28    13    14    am
29    13    78    1
30    14    15    2
31    14    16    1
32    16    17    1
33    16    79    1
34    16    80    1
35    17    18    1
36    17    81    1
37    17    82    1
38    18    19    am
39    18    83    1
40    19    20    2
41    19    21    1
42    21    22    1
43    21    23    1
44    21    24    1
45    23    84    1
46    24    25    1
47    24    26    1
48    24    27    1
49    25    85    1
50    25    86    1
51    25    87    1
52    26    88    1
53    26    89    1
54    26    90    1
55    27    28    1
56    27    91    1
57    27    92    1
58    28    29    1
59    29    30    ar
60    29    31    ar
61    29    32    1
62    32    33    1
63    33    34    ar
64    33    35    ar
65    33    36    1
66    36    37    1
67    37    38    1
68    37    93    1
69    37    94    1
70    38    39    1
71    38    56    1
72    38    40    1
73    40    41    1
74    41    42    1
75    41    43    1
76    41    53    1
77    43    52    1
78    43    44    1
79    44    45    2
80    44    95    1
81    45    46    1
82    46    52    ar
83    46    47    ar
84    47    48    1
85    47    49    ar
86    48    96    1
87    48    97    1
88    49    50    ar
89    50    51    ar
90    50    98    1
91    51    52    ar
92    53    54    1
93    53    55    1
94    53    56    1
95    55    99    1
96    56    57    1
97    56    58    1
98    58    59    1
99    58    100   1
100   58    101   1
101   59    60    2
102   59    61    1
103   59    62    1
104   62    102   1
@<TRIPOS>SUBSTRUCTURE
1   ZINC000197688160 1     RESIDUE    1   A     ZIN   1

@<TRIPOS>MOLECULE
ZINC000197688160
102   104   1     0     0
SMALL
USER_CHARGES
@<TRIPOS>ATOM
1      C1    -13.2952  -15.5525   18.7699 C.3      1 ZINC000197688160   -0.1600
2      C2    -12.5372  -16.0176   17.5249 C.3      1 ZINC000197688160   -0.1200
3      C3    -11.2913  -15.1505   17.3328 C.3      1 ZINC000197688160   -0.1100
4      C4    -10.5447  -15.6086   16.1065 C.2      1 ZINC000197688160   -0.1000
5      C5    -10.2272  -14.7318   15.1526 C.2      1 ZINC000197688160   -0.1600
6      C6    -10.4723  -13.3040   15.3601 C.2      1 ZINC000197688160   -0.0200
7      C7    -10.2459  -12.4267   14.3573 C.2      1 ZINC000197688160   -0.2200
8      C8    -10.4909  -10.9996   14.5646 C.2      1 ZINC000197688160    0.3800
9      O9    -10.8989  -10.6020   15.6408 O.2      1 ZINC000197688160   -0.4500
10     S10   -10.1957   -9.8560   13.2572 S.3      1 ZINC000197688160   -0.1400
11     C11   -10.6603   -8.3119   14.0794 C.3      1 ZINC000197688160   -0.1100
12     C12   -10.4805   -7.1430   13.1086 C.3      1 ZINC000197688160    0.1400
13     N13   -10.8565   -5.8932   13.7741 N.am     1 ZINC000197688160   -0.7300
14     C14   -10.7780   -4.7246   13.1073 C.2      1 ZINC000197688160    0.5200
15     O15   -10.3962   -4.7077   11.9563 O.2      1 ZINC000197688160   -0.5300
16     C16   -11.1648   -3.4390   13.7919 C.3      1 ZINC000197688160   -0.1500
17     C17   -10.9850   -2.2702   12.8211 C.3      1 ZINC000197688160    0.1400
18     N18   -11.3610   -1.0204   13.4867 N.am     1 ZINC000197688160   -0.7400
19     C19   -11.2825    0.1482   12.8198 C.2      1 ZINC000197688160    0.5000
20     O20   -10.8089    0.1790   11.7038 O.2      1 ZINC000197688160   -0.5300
21     C21   -11.7834    1.4167   13.4610 C.3      1 ZINC000197688160    0.1000
22     H22   -10.9981    2.1721   13.4340 H        1 ZINC000197688160    0.1400
23     O23   -12.1451    1.1538   14.8182 O.3      1 ZINC000197688160   -0.5500
24     C24   -13.0071    1.9258   12.6966 C.3      1 ZINC000197688160   -0.0900
25     C25   -12.5941    2.3200   11.2771 C.3      1 ZINC000197688160   -0.1400
26     C26   -14.0640    0.8213   12.6321 C.3      1 ZINC000197688160   -0.1400
27     C27   -13.5870    3.1452   13.4162 C.3      1 ZINC000197688160    0.1500
28     O28   -14.7299    3.6206   12.7023 O.3      1 ZINC000197688160   -0.7700
29     P29   -15.5922    4.8949   13.1763 P.3      1 ZINC000197688160    2.2900
30     O30   -16.0639    4.6848   14.6324 O.co2    1 ZINC000197688160   -1.1000
31     O31   -14.7185    6.1666   13.0964 O.co2    1 ZINC000197688160   -1.1100
32     O32   -16.8736    5.0630   12.2161 O.3      1 ZINC000197688160   -1.0900
33     P33   -18.2443    5.9016   12.3168 P.3      1 ZINC000197688160    2.2900
34     O34   -18.7784    5.8434   13.7654 O.co2    1 ZINC000197688160   -1.1000
35     O35   -17.9784    7.3721   11.9246 O.co2    1 ZINC000197688160   -1.1100
36     O36   -19.3356    5.2683   11.3167 O.3      1 ZINC000197688160   -0.7700
37     C37   -20.6882    5.7245   11.2508 C.3      1 ZINC000197688160    0.1400
38     C38   -21.4500    4.9117   10.2021 C.3      1 ZINC000197688160    0.0900
39     H39   -20.9306    4.9476    9.2445 H        1 ZINC000197688160    0.0800
40     O40   -21.6034    3.5440   10.6399 O.3      1 ZINC000197688160   -0.3500
41     C41   -22.7096    3.0207    9.8729 C.3      1 ZINC000197688160    0.2600
42     H42   -22.3851    2.7665    8.8638 H        1 ZINC000197688160    0.1100
43     N43   -23.2790    1.8450   10.5359 N.pl3    1 ZINC000197688160   -0.4600
44     C44   -23.1962    1.5487   11.8640 C.2      1 ZINC000197688160    0.2900
45     N45   -23.8133    0.4295   12.1092 N.2      1 ZINC000197688160   -0.4800
46     C46   -24.3300   -0.0623   10.9575 C.ar     1 ZINC000197688160   -0.1000
47     C47   -25.0744   -1.2042   10.6167 C.ar     1 ZINC000197688160    0.5000
48     N48   -25.4356   -2.1279   11.5817 N.pl3    1 ZINC000197688160   -0.8200
49     N49   -25.4239   -1.3764    9.3459 N.ar     1 ZINC000197688160   -0.6000
50     C50   -25.0840   -0.5001    8.4185 C.ar     1 ZINC000197688160    0.3500
51     N51   -24.3872    0.5831    8.6912 N.ar     1 ZINC000197688160   -0.5500
52     C52   -23.9984    0.8430    9.9351 C.ar     1 ZINC000197688160    0.3000
53     C53   -23.7408    4.1703    9.8325 C.3      1 ZINC000197688160    0.0800
54     H54   -24.4727    4.0550   10.6319 H        1 ZINC000197688160    0.0800
55     O55   -24.3922    4.2143    8.5614 O.3      1 ZINC000197688160   -0.5000
56     C56   -22.8921    5.4449   10.0519 C.3      1 ZINC000197688160   -0.0800
57     H57   -23.2041    5.9597   10.9607 H        1 ZINC000197688160    0.1100
58     C58   -23.0032    6.3774    8.8441 C.3      1 ZINC000197688160   -0.7100
59     P59   -24.6088    7.2397    8.8878 P.3      1 ZINC000197688160    2.2500
60     O60   -24.7671    7.9651   10.2427 O.2      1 ZINC000197688160   -1.1000
61     O61   -25.7500    6.2123    8.7172 O.3      1 ZINC000197688160   -1.0800
62     O62   -24.6726    8.3160    7.6921 O.3      1 ZINC000197688160   -0.9100
63     H63   -14.1828  -16.1702   18.9068 H        1 ZINC000197688160    0.0600
64     H64   -12.6501  -15.6447   19.6436 H        1 ZINC000197688160    0.0500
65     H65   -13.5928  -14.5112   18.6463 H        1 ZINC000197688160    0.0600
66     H66   -12.2397  -17.0588   17.6486 H        1 ZINC000197688160    0.0600
67     H67   -13.1823  -15.9253   16.6512 H        1 ZINC000197688160    0.0600
68     H68   -11.5889  -14.1092   17.2092 H        1 ZINC000197688160    0.0800
69     H69   -10.6462  -15.2428   18.2065 H        1 ZINC000197688160    0.0800
70     H70   -10.2667  -16.6468   16.0000 H        1 ZINC000197688160    0.1200
71     H71    -9.7892  -15.0756   14.2273 H        1 ZINC000197688160    0.1300
72     H72   -10.8342  -12.9513   16.3146 H        1 ZINC000197688160    0.1300
73     H73    -9.8840  -12.7794   13.4027 H        1 ZINC000197688160    0.1400
74     H74   -11.7027   -8.3666   14.3931 H        1 ZINC000197688160    0.1000
75     H75   -10.0256   -8.1599   14.9525 H        1 ZINC000197688160    0.1000
76     H76    -9.4380   -7.0883   12.7950 H        1 ZINC000197688160    0.0800
77     H77   -11.1151   -7.2949   12.2356 H        1 ZINC000197688160    0.0800
78     H78   -11.1619   -5.9068   14.6947 H        1 ZINC000197688160    0.4000
79     H79   -12.2072   -3.4937   14.1056 H        1 ZINC000197688160    0.1100
80     H80   -10.5302   -3.2871   14.6650 H        1 ZINC000197688160    0.1000
81     H81    -9.9425   -2.2154   12.5075 H        1 ZINC000197688160    0.0700
82     H82   -11.6196   -2.4221   11.9481 H        1 ZINC000197688160    0.0800
83     H83   -11.6664   -1.0339   14.4072 H        1 ZINC000197688160    0.4000
84     H84   -12.8407    0.4896   14.9183 H        1 ZINC000197688160    0.3700
85     H85   -12.3094    1.4272   10.7204 H        1 ZINC000197688160    0.0600
86     H86   -13.4309    2.8083   10.7776 H        1 ZINC000197688160    0.0700
87     H87   -11.7477    3.0054   11.3221 H        1 ZINC000197688160    0.0500
88     H88   -14.3582    0.5405   13.6434 H        1 ZINC000197688160    0.0500
89     H89   -14.9357    1.1840   12.0875 H        1 ZINC000197688160    0.0800
90     H90   -13.6508   -0.0473   12.1194 H        1 ZINC000197688160    0.0500
91     H91   -13.8813    2.8643   14.4275 H        1 ZINC000197688160    0.0600
92     H92   -12.8341    3.9320   13.4622 H        1 ZINC000197688160    0.0500
93     H93   -21.1624    5.5971   12.2240 H        1 ZINC000197688160    0.0700
94     H94   -20.7030    6.7788   10.9746 H        1 ZINC000197688160    0.0700
95     H95   -22.6922    2.1533   12.6034 H        1 ZINC000197688160    0.2300
96     H96   -25.1749   -1.9910   12.5059 H        1 ZINC000197688160    0.4200
97     H97   -25.9496   -2.9124   11.3340 H        1 ZINC000197688160    0.4000
98     H98   -25.3887   -0.6788    7.3979 H        1 ZINC000197688160    0.2000
99     H99   -24.8904    3.4138    8.3469 H        1 ZINC000197688160    0.3600
100    H100  -22.1965    7.1097    8.8751 H        1 ZINC000197688160    0.0700
101    H101  -22.9291    5.7938    7.9265 H        1 ZINC000197688160    0.0800
102    H102  -25.5010    8.8134    7.6544 H        1 ZINC000197688160    0.4000
@<TRIPOS>BOND
1     1     2     1
2     1     63    1
3     1     64    1
4     1     65    1
5     2     3     1
6     2     66    1
7     2     67    1
8     3     4     1
9     3     68    1
10    3     69    1
11    4     5     2
12    4     70    1
13    5     6     1
14    5     71    1
15    6     7     2
16    6     72    1
17    7     8     1
18    7     73    1
19    8     9     2
20    8     10    1
21    10    11    1
22    11    12    1
23    11    74    1
24    11    75    1
25    12    13    1
26    12    76    1
27    12    77    1
28    13    14    am
29    13    78    1
30    14    15    2
31    14    16    1
32    16    17    1
33    16    79    1
34    16    80    1
35    17    18    1
36    17    81    1
37    17    82    1
38    18    19    am
39    18    83    1
40    19    20    2
41    19    21    1
42    21    22    1
43    21    23    1
44    21    24    1
45    23    84    1
46    24    25    1
47    24    26    1
48    24    27    1
49    25    85    1
50    25    86    1
51    25    87    1
52    26    88    1
53    26    89    1
54    26    90    1
55    27    28    1
56    27    91    1
57    27    92    1
58    28    29    1
59    29    30    ar
60    29    31    ar
61    29    32    1
62    32    33    1
63    33    34    ar
64    33    35    ar
65    33    36    1
66    36    37    1
67    37    38    1
68    37    93    1
69    37    94    1
70    38    39    1
71    38    56    1
72    38    40    1
73    40    41    1
74    41    42    1
75    41    43    1
76    41    53    1
77    43    52    1
78    43    44    1
79    44    45    2
80    44    95    1
81    45    46    1
82    46    52    ar
83    46    47    ar
84    47    48    1
85    47    49    ar
86    48    96    1
87    48    97    1
88    49    50    ar
89    50    51    ar
90    50    98    1
91    51    52    ar
92    53    54    1
93    53    55    1
94    53    56    1
95    55    99    1
96    56    57    1
97    56    58    1
98    58    59    1
99    58    100   1
100   58    101   1
101   59    60    2
102   59    61    1
103   59    62    1
104   62    102   1
@<TRIPOS>SUBSTRUCTURE
1   ZINC000197688160 1     RESIDUE    1   A     ZIN   1

@<TRIPOS>MOLECULE
ZINC000197688160
101   103   1     0     0
SMALL
USER_CHARGES
@<TRIPOS>ATOM
1      C1     -9.3646  -15.2793  -21.2050 C.3      1 ZINC000197688160   -0.1600
2      C2     -8.6579  -15.7589  -19.9356 C.3      1 ZINC000197688160   -0.1200
3      C3     -9.1277  -14.9227  -18.7435 C.3      1 ZINC000197688160   -0.1100
4      C4     -8.4316  -15.3952  -17.4932 C.2      1 ZINC000197688160   -0.1000
5      C5     -7.7778  -14.5233  -16.7238 C.2      1 ZINC000197688160   -0.1600
6      C6     -7.8573  -13.0905  -17.0112 C.2      1 ZINC000197688160   -0.0200
7      C7     -7.1156  -12.2157  -16.2963 C.2      1 ZINC000197688160   -0.2200
8      C8     -7.1949  -10.7836  -16.5835 C.2      1 ZINC000197688160    0.3800
9      O9     -7.9293  -10.3797  -17.4669 O.2      1 ZINC000197688160   -0.4500
10     S10    -6.2279   -9.6432  -15.6514 S.3      1 ZINC000197688160   -0.1400
11     C11    -6.7319   -8.0908  -16.4338 C.3      1 ZINC000197688160   -0.1100
12     C12    -5.9993   -6.9234  -15.7694 C.3      1 ZINC000197688160    0.1400
13     N13    -6.4072   -5.6669  -16.4027 N.am     1 ZINC000197688160   -0.7300
14     C14    -5.8871   -4.4983  -15.9781 C.2      1 ZINC000197688160    0.5200
15     O15    -5.0814   -4.4869  -15.0717 O.2      1 ZINC000197688160   -0.5300
16     C16    -6.3067   -3.2058  -16.6295 C.3      1 ZINC000197688160   -0.1500
17     C17    -5.5741   -2.0385  -15.9651 C.3      1 ZINC000197688160    0.1400
18     N18    -5.9820   -0.7820  -16.5984 N.am     1 ZINC000197688160   -0.7400
19     C19    -5.4619    0.3866  -16.1737 C.2      1 ZINC000197688160    0.5000
20     O20    -4.7325    0.4094  -15.2050 O.2      1 ZINC000197688160   -0.5300
21     C21    -5.7866    1.6651  -16.9026 C.3      1 ZINC000197688160    0.1000
22     H22    -6.1675    2.4006  -16.1940 H        1 ZINC000197688160    0.1400
23     O23    -6.7773    1.4065  -17.8995 O.3      1 ZINC000197688160   -0.5500
24     C24    -4.5211    2.2074  -17.5697 C.3      1 ZINC000197688160   -0.0900
25     C25    -3.5043    2.5960  -16.4946 C.3      1 ZINC000197688160   -0.1400
26     C26    -3.9199    1.1300  -18.4746 C.3      1 ZINC000197688160   -0.1400
27     C27    -4.8735    3.4384  -18.4072 C.3      1 ZINC000197688160    0.1500
28     O28    -3.6914    3.9449  -19.0303 O.3      1 ZINC000197688160   -0.7700
29     P29    -3.6909    5.2387  -19.9885 P.3      1 ZINC000197688160    2.2900
30     O30    -4.7130    5.0354  -21.1290 O.co2    1 ZINC000197688160   -1.1000
31     O31    -4.0781    6.4883  -19.1665 O.co2    1 ZINC000197688160   -1.1100
32     O32    -2.2216    5.4423  -20.6145 O.3      1 ZINC000197688160   -1.0900
33     P33    -1.6369    6.3146  -21.8349 P.3      1 ZINC000197688160    2.2900
34     O34    -2.6237    6.2648  -23.0226 O.co2    1 ZINC000197688160   -1.1000
35     O35    -1.4530    7.7794  -21.3791 O.co2    1 ZINC000197688160   -1.1100
36     O36    -0.2156    5.7125  -22.2923 O.3      1 ZINC000197688160   -0.7700
37     C37     0.5103    6.2027  -23.4214 C.3      1 ZINC000197688160    0.1400
38     C38     1.8119    5.4130  -23.5730 C.3      1 ZINC000197688160    0.0800
39     H39     2.3812    5.4392  -22.6438 H        1 ZINC000197688160    0.0800
40     O40     1.5307    4.0480  -23.9520 O.3      1 ZINC000197688160   -0.3600
41     C41     2.7559    3.5554  -24.5368 C.3      1 ZINC000197688160    0.2500
42     H42     3.4716    3.2966  -23.7564 H        1 ZINC000197688160    0.1100
43     N43     2.4846    2.3919  -25.3847 N.pl3    1 ZINC000197688160   -0.4500
44     C44     1.2976    2.0891  -25.9829 C.2      1 ZINC000197688160    0.2900
45     N45     1.4111    0.9849  -26.6622 N.2      1 ZINC000197688160   -0.4800
46     C46     2.6744    0.5102  -26.5436 C.ar     1 ZINC000197688160   -0.1000
47     C47     3.3593   -0.6115  -27.0405 C.ar     1 ZINC000197688160    0.5000
48     N48     2.7184   -1.5292  -27.8543 N.pl3    1 ZINC000197688160   -0.8300
49     N49     4.6372   -0.7703  -26.7113 N.ar     1 ZINC000197688160   -0.6000
50     C50     5.2569    0.1004  -25.9358 C.ar     1 ZINC000197688160    0.3400
51     N51     4.6557    1.1648  -25.4472 N.ar     1 ZINC000197688160   -0.5400
52     C52     3.3800    1.4105  -25.7273 C.ar     1 ZINC000197688160    0.3000
53     C53     3.2882    4.7306  -25.3864 C.3      1 ZINC000197688160    0.1000
54     H54     2.9635    4.6309  -26.4221 H        1 ZINC000197688160    0.0700
55     O55     4.7139    4.7954  -25.3140 O.3      1 ZINC000197688160   -0.4800
56     C56     2.6543    5.9827  -24.7358 C.3      1 ZINC000197688160   -0.0700
57     H57     2.0152    6.5020  -25.4500 H        1 ZINC000197688160    0.1000
58     C58     3.7413    6.9219  -24.2095 C.3      1 ZINC000197688160   -0.7100
59     P59     4.4924    7.8241  -25.6042 P.3      1 ZINC000197688160    2.2200
60     O60     5.0138    6.7996  -26.6687 O.co2    1 ZINC000197688160   -1.1700
61     O61     3.4195    8.7584  -26.2603 O.co2    1 ZINC000197688160   -1.1900
62     O62     5.6895    8.6896  -25.0823 O.co2    1 ZINC000197688160   -1.2000
63     H63   -10.4422  -15.3907  -21.0852 H        1 ZINC000197688160    0.0500
64     H64    -9.1251  -14.2304  -21.3800 H        1 ZINC000197688160    0.0600
65     H65    -9.0300  -15.8750  -22.0543 H        1 ZINC000197688160    0.0600
66     H66    -8.8975  -16.8078  -19.7606 H        1 ZINC000197688160    0.0600
67     H67    -7.5803  -15.6474  -20.0555 H        1 ZINC000197688160    0.0600
68     H68    -8.8881  -13.8739  -18.9185 H        1 ZINC000197688160    0.0800
69     H69   -10.2053  -15.0342  -18.6236 H        1 ZINC000197688160    0.0800
70     H70    -8.4621  -16.4396  -17.2200 H        1 ZINC000197688160    0.1200
71     H71    -7.1899  -14.8748  -15.8888 H        1 ZINC000197688160    0.1300
72     H72    -8.5086  -12.7322  -17.7947 H        1 ZINC000197688160    0.1300
73     H73    -6.4642  -12.5740  -15.5128 H        1 ZINC000197688160    0.1400
74     H74    -6.4818   -8.1204  -17.4943 H        1 ZINC000197688160    0.1000
75     H75    -7.8076   -7.9579  -16.3178 H        1 ZINC000197688160    0.1000
76     H76    -6.2494   -6.8938  -14.7090 H        1 ZINC000197688160    0.0800
77     H77    -4.9236   -7.0563  -15.8855 H        1 ZINC000197688160    0.0800
78     H78    -7.0516   -5.6760  -17.1277 H        1 ZINC000197688160    0.4000
79     H79    -6.0566   -3.2355  -17.6900 H        1 ZINC000197688160    0.1100
80     H80    -7.3824   -3.0729  -16.5135 H        1 ZINC000197688160    0.1000
81     H81    -5.8242   -2.0088  -14.9046 H        1 ZINC000197688160    0.0700
82     H82    -4.4984   -2.1713  -16.0811 H        1 ZINC000197688160    0.0800
83     H83    -6.6264   -0.7911  -17.3233 H        1 ZINC000197688160    0.4000
84     H84    -6.5060    0.7596  -18.5651 H        1 ZINC000197688160    0.3700
85     H85    -3.1504    1.6983  -15.9876 H        1 ZINC000197688160    0.0600
86     H86    -2.6611    3.1069  -16.9596 H        1 ZINC000197688160    0.0700
87     H87    -3.9768    3.2598  -15.7706 H        1 ZINC000197688160    0.0500
88     H88    -4.6442    0.8531  -19.2406 H        1 ZINC000197688160    0.0500
89     H89    -3.0182    1.5163  -18.9499 H        1 ZINC000197688160    0.0800
90     H90    -3.6688    0.2530  -17.8780 H        1 ZINC000197688160    0.0400
91     H91    -5.5978    3.1615  -19.1732 H        1 ZINC000197688160    0.0600
92     H92    -5.3018    4.2059  -17.7626 H        1 ZINC000197688160    0.0500
93     H93    -0.0936    6.0839  -24.3211 H        1 ZINC000197688160    0.0600
94     H94     0.7405    7.2580  -23.2751 H        1 ZINC000197688160    0.0800
95     H95     0.3959    2.6782  -25.9041 H        1 ZINC000197688160    0.2300
96     H96     1.7856   -1.4020  -28.0878 H        1 ZINC000197688160    0.4200
97     H97     3.2021   -2.2996  -28.1911 H        1 ZINC000197688160    0.4000
98     H98     6.2958   -0.0671  -25.6930 H        1 ZINC000197688160    0.2000
99     H99     5.1612    4.0083  -25.6541 H        1 ZINC000197688160    0.3500
100    H100    3.3000    7.6337  -23.5119 H        1 ZINC000197688160    0.0500
101    H101    4.5081    6.3398  -23.6982 H        1 ZINC000197688160    0.0600
@<TRIPOS>BOND
1     1     2     1
2     1     63    1
3     1     64    1
4     1     65    1
5     2     3     1
6     2     66    1
7     2     67    1
8     3     4     1
9     3     68    1
10    3     69    1
11    4     5     2
12    4     70    1
13    5     6     1
14    5     71    1
15    6     7     2
16    6     72    1
17    7     8     1
18    7     73    1
19    8     9     2
20    8     10    1
21    10    11    1
22    11    12    1
23    11    74    1
24    11    75    1
25    12    13    1
26    12    76    1
27    12    77    1
28    13    14    am
29    13    78    1
30    14    15    2
31    14    16    1
32    16    17    1
33    16    79    1
34    16    80    1
35    17    18    1
36    17    81    1
37    17    82    1
38    18    19    am
39    18    83    1
40    19    20    2
41    19    21    1
42    21    22    1
43    21    23    1
44    21    24    1
45    23    84    1
46    24    25    1
47    24    26    1
48    24    27    1
49    25    85    1
50    25    86    1
51    25    87    1
52    26    88    1
53    26    89    1
54    26    90    1
55    27    28    1
56    27    91    1
57    27    92    1
58    28    29    1
59    29    30    ar
60    29    31    ar
61    29    32    1
62    32    33    1
63    33    34    ar
64    33    35    ar
65    33    36    1
66    36    37    1
67    37    38    1
68    37    93    1
69    37    94    1
70    38    39    1
71    38    56    1
72    38    40    1
73    40    41    1
74    41    42    1
75    41    43    1
76    41    53    1
77    43    52    1
78    43    44    1
79    44    45    2
80    44    95    1
81    45    46    1
82    46    52    ar
83    46    47    ar
84    47    48    1
85    47    49    ar
86    48    96    1
87    48    97    1
88    49    50    ar
89    50    51    ar
90    50    98    1
91    51    52    ar
92    53    54    1
93    53    55    1
94    53    56    1
95    55    99    1
96    56    57    1
97    56    58    1
98    58    59    1
99    58    100   1
100   58    101   1
101   59    60    ar
102   59    61    ar
103   59    62    ar
@<TRIPOS>SUBSTRUCTURE
1   ZINC000197688160 1     RESIDUE    1   A     ZIN   1
@<TRIPOS>MOLECULE
ZINC000008551219
90    92    1     0     0
SMALL
USER_CHARGES
@<TRIPOS>ATOM
1      C1     -7.6146    2.4005  -14.0547 C.3      1 ZINC000008551219   -0.1200
2      C2     -8.8004    3.2526  -13.5977 C.3      1 ZINC000008551219   -0.1900
3      H3     -8.4346    4.1937  -13.1869 H        1 ZINC000008551219    0.1000
4      C4     -9.6998    3.5337  -14.7737 C.2      1 ZINC000008551219    0.5000
5      O5    -10.8618    3.1649  -14.7543 O.co2    1 ZINC000008551219   -0.6600
6      O6     -9.2655    4.1298  -15.7445 O.co2    1 ZINC000008551219   -0.7000
7      C7     -9.5745    2.5097  -12.5394 C.2      1 ZINC000008551219    0.3500
8      O8    -10.7421    2.2354  -12.7223 O.2      1 ZINC000008551219   -0.3900
9      S9     -8.8064    2.0529  -11.0792 S.3      1 ZINC000008551219   -0.1900
10     C10   -10.1844    1.2290  -10.2436 C.3      1 ZINC000008551219   -0.1100
11     C11    -9.7219    0.7217   -8.8762 C.3      1 ZINC000008551219    0.1400
12     N12   -10.8373    0.0549   -8.1999 N.am     1 ZINC000008551219   -0.7300
13     C13   -10.6619   -0.4744   -6.9729 C.2      1 ZINC000008551219    0.5200
14     O14    -9.5807   -0.3987   -6.4287 O.2      1 ZINC000008551219   -0.5300
15     C15   -11.8093   -1.1604   -6.2771 C.3      1 ZINC000008551219   -0.1500
16     C16   -11.3467   -1.6676   -4.9098 C.3      1 ZINC000008551219    0.1400
17     N17   -12.4621   -2.3345   -4.2334 N.am     1 ZINC000008551219   -0.7300
18     C18   -12.2867   -2.8638   -3.0064 C.2      1 ZINC000008551219    0.5000
19     O19   -11.1842   -2.8710   -2.5010 O.2      1 ZINC000008551219   -0.5300
20     C20   -13.4605   -3.4467   -2.2625 C.3      1 ZINC000008551219    0.1000
21     H21   -13.1928   -4.4293   -1.8740 H        1 ZINC000008551219    0.1300
22     O22   -14.5726   -3.5726   -3.1509 O.3      1 ZINC000008551219   -0.5500
23     C23   -13.8372   -2.5245   -1.1012 C.3      1 ZINC000008551219   -0.0900
24     C24   -12.7025   -2.5070   -0.0751 C.3      1 ZINC000008551219   -0.1400
25     C25   -14.0688   -1.1075   -1.6297 C.3      1 ZINC000008551219   -0.1400
26     C26   -15.1171   -3.0368   -0.4376 C.3      1 ZINC000008551219    0.1500
27     O27   -15.4689   -2.1755    0.6470 O.3      1 ZINC000008551219   -0.7700
28     P28   -16.7653   -2.4143    1.5714 P.3      1 ZINC000008551219    2.3000
29     O29   -18.0241   -2.5033    0.6800 O.co2    1 ZINC000008551219   -1.1100
30     O30   -16.5992   -3.7319    2.3610 O.co2    1 ZINC000008551219   -1.1100
31     O31   -16.9230   -1.1874    2.6019 O.3      1 ZINC000008551219   -1.0900
32     P32   -18.1185   -0.6665    3.5461 P.3      1 ZINC000008551219    2.3000
33     O33   -18.7558   -1.8675    4.2799 O.co2    1 ZINC000008551219   -1.1000
34     O34   -19.1891    0.0358    2.6814 O.co2    1 ZINC000008551219   -1.1100
35     O35   -17.5343    0.3742    4.6268 O.3      1 ZINC000008551219   -0.7700
36     C36   -18.3274    0.9353    5.6747 C.3      1 ZINC000008551219    0.1400
37     C37   -17.4664    1.8795    6.5162 C.3      1 ZINC000008551219    0.0700
38     H38   -16.5753    1.3628    6.8726 H        1 ZINC000008551219    0.1000
39     O39   -17.0981    3.0445    5.7463 O.3      1 ZINC000008551219   -0.3500
40     C40   -16.7470    4.0499    6.7219 C.3      1 ZINC000008551219    0.2600
41     H41   -15.7456    3.8673    7.1115 H        1 ZINC000008551219    0.1200
42     N42   -16.8261    5.3867    6.1277 N.pl3    1 ZINC000008551219   -0.4500
43     C43   -17.5765    5.7463    5.0479 C.2      1 ZINC000008551219    0.2900
44     N44   -17.4090    7.0112    4.7915 N.2      1 ZINC000008551219   -0.4800
45     C45   -16.5430    7.5422    5.6877 C.ar     1 ZINC000008551219   -0.1000
46     C46   -16.0000    8.8207    5.8992 C.ar     1 ZINC000008551219    0.5000
47     N47   -16.3418    9.8800    5.0769 N.pl3    1 ZINC000008551219   -0.8300
48     N48   -15.1508    8.9892    6.9077 N.ar     1 ZINC000008551219   -0.6000
49     C49   -14.8193    7.9845    7.6976 C.ar     1 ZINC000008551219    0.3400
50     N50   -15.3022    6.7703    7.5372 N.ar     1 ZINC000008551219   -0.5400
51     C51   -16.1631    6.5075    6.5595 C.ar     1 ZINC000008551219    0.2900
52     C52   -17.7972    3.8946    7.8441 C.3      1 ZINC000008551219    0.0600
53     H53   -18.6248    4.5874    7.6912 H        1 ZINC000008551219    0.0700
54     O54   -17.1978    4.1072    9.1237 O.3      1 ZINC000008551219   -0.5000
55     C55   -18.2805    2.4316    7.7073 C.3      1 ZINC000008551219    0.1500
56     H56   -19.3474    2.4009    7.4860 H        1 ZINC000008551219    0.0800
57     O57   -17.9964    1.6969    8.8997 O.3      1 ZINC000008551219   -0.7200
58     P58   -19.1360    0.9691    9.7736 P.3      1 ZINC000008551219    2.1200
59     O59   -20.2374    2.0113   10.1675 O.co2    1 ZINC000008551219   -1.1900
60     O60   -19.7839   -0.1824    8.9319 O.co2    1 ZINC000008551219   -1.1700
61     O61   -18.4955    0.3702   11.0720 O.co2    1 ZINC000008551219   -1.1700
62     H62    -7.0547    2.9379  -14.8201 H        1 ZINC000008551219    0.0700
63     H63    -6.9640    2.1972  -13.2040 H        1 ZINC000008551219    0.0500
64     H64    -7.9803    1.4595  -14.4654 H        1 ZINC000008551219    0.0500
65     H65   -11.0037    1.9357  -10.1109 H        1 ZINC000008551219    0.1000
66     H66   -10.5246    0.3876  -10.8472 H        1 ZINC000008551219    0.1000
67     H67    -8.9027    0.0151   -9.0090 H        1 ZINC000008551219    0.0800
68     H68    -9.3817    1.5632   -8.2726 H        1 ZINC000008551219    0.0800
69     H69   -11.7020   -0.0056   -8.6351 H        1 ZINC000008551219    0.4000
70     H70   -12.6285   -0.4537   -6.1444 H        1 ZINC000008551219    0.1100
71     H71   -12.1495   -2.0018   -6.8808 H        1 ZINC000008551219    0.1000
72     H72   -10.5275   -2.3743   -5.0425 H        1 ZINC000008551219    0.0700
73     H73   -11.0065   -0.8262   -4.3062 H        1 ZINC000008551219    0.0800
74     H74   -13.3268   -2.3950   -4.6687 H        1 ZINC000008551219    0.4000
75     H75   -14.8658   -2.7351   -3.5352 H        1 ZINC000008551219    0.3700
76     H76   -11.8117   -2.0695   -0.5258 H        1 ZINC000008551219    0.0600
77     H77   -13.0023   -1.9126    0.7880 H        1 ZINC000008551219    0.0800
78     H78   -12.4851   -3.5264    0.2437 H        1 ZINC000008551219    0.0500
79     H79   -14.8772   -1.1200   -2.3608 H        1 ZINC000008551219    0.0500
80     H80   -14.3372   -0.4505   -0.8024 H        1 ZINC000008551219    0.0800
81     H81   -13.1570   -0.7425   -2.1025 H        1 ZINC000008551219    0.0500
82     H82   -15.9255   -3.0493   -1.1686 H        1 ZINC000008551219    0.0600
83     H83   -14.9521   -4.0463   -0.0611 H        1 ZINC000008551219    0.0500
84     H84   -19.1599    1.4907    5.2427 H        1 ZINC000008551219    0.0600
85     H85   -18.7133    0.1353    6.3065 H        1 ZINC000008551219    0.1000
86     H86   -18.2153    5.0798    4.4875 H        1 ZINC000008551219    0.2300
87     H87   -16.9630    9.7445    4.3443 H        1 ZINC000008551219    0.4200
88     H88   -15.9602   10.7580    5.2331 H        1 ZINC000008551219    0.4000
89     H89   -14.1256    8.1654    8.5054 H        1 ZINC000008551219    0.2000
90     H90   -16.8243    4.9914    9.2411 H        1 ZINC000008551219    0.3500
@<TRIPOS>BOND
1     1     2     1
2     1     62    1
3     1     63    1
4     1     64    1
5     2     3     1
6     2     4     1
7     2     7     1
8     4     5     ar
9     4     6     ar
10    7     8     2
11    7     9     1
12    9     10    1
13    10    11    1
14    10    65    1
15    10    66    1
16    11    12    1
17    11    67    1
18    11    68    1
19    12    13    am
20    12    69    1
21    13    14    2
22    13    15    1
23    15    16    1
24    15    70    1
25    15    71    1
26    16    17    1
27    16    72    1
28    16    73    1
29    17    18    am
30    17    74    1
31    18    19    2
32    18    20    1
33    20    21    1
34    20    22    1
35    20    23    1
36    22    75    1
37    23    24    1
38    23    25    1
39    23    26    1
40    24    76    1
41    24    77    1
42    24    78    1
43    25    79    1
44    25    80    1
45    25    81    1
46    26    27    1
47    26    82    1
48    26    83    1
49    27    28    1
50    28    29    ar
51    28    30    ar
52    28    31    1
53    31    32    1
54    32    33    ar
55    32    34    ar
56    32    35    1
57    35    36    1
58    36    37    1
59    36    84    1
60    36    85    1
61    37    38    1
62    37    55    1
63    37    39    1
64    39    40    1
65    40    41    1
66    40    42    1
67    40    52    1
68    42    51    1
69    42    43    1
70    43    44    2
71    43    86    1
72    44    45    1
73    45    51    ar
74    45    46    ar
75    46    47    1
76    46    48    ar
77    47    87    1
78    47    88    1
79    48    49    ar
80    49    50    ar
81    49    89    1
82    50    51    ar
83    52    53    1
84    52    54    1
85    52    55    1
86    54    90    1
87    55    56    1
88    55    57    1
89    57    58    1
90    58    59    ar
91    58    60    ar
92    58    61    ar
@<TRIPOS>SUBSTRUCTURE
1   ZINC000008551219 1     RESIDUE    1   A     ZIN   1
@<TRIPOS>MOLECULE
ZINC000008551256
89    91    1     0     0
SMALL
USER_CHARGES
@<TRIPOS>ATOM
1      C1      8.3133   -5.0033   15.4413 C.3      1 ZINC000008551256   -0.1400
2      C2      7.8545   -6.1464   14.5731 C.2      1 ZINC000008551256   -0.0500
3      C3      7.3151   -5.9021   13.3823 C.2      1 ZINC000008551256   -0.2300
4      C4      6.8673   -7.0178   12.5349 C.2      1 ZINC000008551256    0.3800
5      O5      6.9903   -8.1642   12.9233 O.2      1 ZINC000008551256   -0.4500
6      S6      6.1527   -6.6941   10.9571 S.3      1 ZINC000008551256   -0.1400
7      C7      5.8160   -8.3867   10.4114 C.3      1 ZINC000008551256   -0.1100
8      C8      5.1744   -8.3566    9.0227 C.3      1 ZINC000008551256    0.1400
9      N9      4.9018   -9.7266    8.5810 N.am     1 ZINC000008551256   -0.7300
10     C10     4.3340   -9.9465    7.3786 C.2      1 ZINC000008551256    0.5200
11     O11     4.0488   -9.0103    6.6623 O.2      1 ZINC000008551256   -0.5300
12     C12     4.0536  -11.3558    6.9242 C.3      1 ZINC000008551256   -0.1500
13     C13     3.4121  -11.3257    5.5355 C.3      1 ZINC000008551256    0.1400
14     N14     3.1395  -12.6957    5.0938 N.am     1 ZINC000008551256   -0.7400
15     C15     2.5717  -12.9156    3.8914 C.2      1 ZINC000008551256    0.5000
16     O16     2.2033  -11.9793    3.2143 O.2      1 ZINC000008551256   -0.5300
17     C17     2.3947  -14.3251    3.3882 C.3      1 ZINC000008551256    0.1000
18     H18     2.8308  -14.4131    2.3932 H        1 ZINC000008551256    0.1400
19     O19     3.0480  -15.2337    4.2768 O.3      1 ZINC000008551256   -0.5500
20     C20     0.9031  -14.6596    3.3227 C.3      1 ZINC000008551256   -0.0900
21     C21     0.2628  -14.4050    4.6887 C.3      1 ZINC000008551256   -0.1400
22     C22     0.2283  -13.7771    2.2707 C.3      1 ZINC000008551256   -0.1400
23     C23     0.7267  -16.1312    2.9431 C.3      1 ZINC000008551256    0.1500
24     O24    -0.6664  -16.4437    2.8819 O.3      1 ZINC000008551256   -0.7700
25     P25    -1.2209  -17.9086    2.5094 P.3      1 ZINC000008551256    2.3000
26     O26    -0.6306  -18.3531    1.1527 O.co2    1 ZINC000008551256   -1.1100
27     O27    -0.8022  -18.9121    3.6070 O.co2    1 ZINC000008551256   -1.1100
28     O28    -2.8271  -17.8643    2.4072 O.3      1 ZINC000008551256   -1.0900
29     P29    -3.9365  -18.8577    1.7952 P.3      1 ZINC000008551256    2.2900
30     O30    -3.6195  -20.3087    2.2207 O.co2    1 ZINC000008551256   -1.1000
31     O31    -3.9224  -18.7583    0.2535 O.co2    1 ZINC000008551256   -1.1100
32     O32    -5.3911  -18.4424    2.3464 O.3      1 ZINC000008551256   -0.7700
33     C33    -6.5730  -19.1960    2.0685 C.3      1 ZINC000008551256    0.1400
34     C34    -7.7740  -18.5274    2.7404 C.3      1 ZINC000008551256    0.0700
35     H35    -7.5846  -18.3902    3.8050 H        1 ZINC000008551256    0.1000
36     O36    -8.0590  -17.2582    2.1128 O.3      1 ZINC000008551256   -0.3500
37     C37    -9.4320  -16.9657    2.4521 C.3      1 ZINC000008551256    0.2600
38     H38    -9.4987  -16.5893    3.4728 H        1 ZINC000008551256    0.1200
39     N39    -9.9931  -15.9916    1.5126 N.pl3    1 ZINC000008551256   -0.4500
40     C40    -9.5613  -15.7559    0.2413 C.2      1 ZINC000008551256    0.2900
41     N41   -10.2858  -14.8254   -0.3090 N.2      1 ZINC000008551256   -0.4800
42     C42   -11.2260  -14.4060    0.5716 C.ar     1 ZINC000008551256   -0.1000
43     C43   -12.2566  -13.4515    0.5369 C.ar     1 ZINC000008551256    0.5000
44     N44   -12.4786  -12.6901   -0.5972 N.pl3    1 ZINC000008551256   -0.8300
45     N45   -13.0135  -13.2973    1.6184 N.ar     1 ZINC000008551256   -0.6000
46     C46   -12.8093  -14.0197    2.7047 C.ar     1 ZINC000008551256    0.3400
47     N47   -11.8563  -14.9245    2.7828 N.ar     1 ZINC000008551256   -0.5400
48     C48   -11.0532  -15.1534    1.7490 C.ar     1 ZINC000008551256    0.3000
49     C49   -10.1659  -18.3194    2.3290 C.3      1 ZINC000008551256    0.0600
50     H50   -10.6183  -18.4203    1.3424 H        1 ZINC000008551256    0.0700
51     O51   -11.1589  -18.4452    3.3490 O.3      1 ZINC000008551256   -0.5000
52     C52    -9.0495  -19.3719    2.5255 C.3      1 ZINC000008551256    0.1500
53     H53    -8.9493  -19.9931    1.6355 H        1 ZINC000008551256    0.0800
54     O54    -9.3206  -20.1814    3.6715 O.3      1 ZINC000008551256   -0.7200
55     P55    -9.4766  -21.7821    3.5974 P.3      1 ZINC000008551256    2.1200
56     O56   -10.5768  -22.1514    2.5450 O.co2    1 ZINC000008551256   -1.1900
57     O57    -8.1110  -22.4207    3.1713 O.co2    1 ZINC000008551256   -1.1700
58     O58    -9.8939  -22.3318    5.0039 O.co2    1 ZINC000008551256   -1.1700
59     H59     7.4668   -4.3536   15.6639 H        1 ZINC000008551256    0.0800
60     H60     8.7245   -5.3957   16.3714 H        1 ZINC000008551256    0.0700
61     H61     9.0804   -4.4337   14.9167 H        1 ZINC000008551256    0.0800
62     H62     7.9636   -7.1640   14.9179 H        1 ZINC000008551256    0.1300
63     H63     7.2060   -4.8844   13.0375 H        1 ZINC000008551256    0.1400
64     H64     6.7499   -8.9471   10.3681 H        1 ZINC000008551256    0.1000
65     H65     5.1363   -8.8670   11.1153 H        1 ZINC000008551256    0.1000
66     H66     4.2405   -7.7962    9.0660 H        1 ZINC000008551256    0.0800
67     H67     5.8540   -7.8763    8.3188 H        1 ZINC000008551256    0.0800
68     H68     5.1299  -10.4753    9.1539 H        1 ZINC000008551256    0.4000
69     H69     4.9875  -11.9162    6.8809 H        1 ZINC000008551256    0.1000
70     H70     3.3740  -11.8361    7.6281 H        1 ZINC000008551256    0.1100
71     H71     2.4781  -10.7653    5.5788 H        1 ZINC000008551256    0.0800
72     H72     4.0917  -10.8454    4.8316 H        1 ZINC000008551256    0.0700
73     H73     3.3676  -13.4445    5.6667 H        1 ZINC000008551256    0.4000
74     H74     2.7101  -15.2095    5.1825 H        1 ZINC000008551256    0.3700
75     H75     0.3885  -13.3566    4.9591 H        1 ZINC000008551256    0.0400
76     H76    -0.7998  -14.6433    4.6420 H        1 ZINC000008551256    0.0800
77     H77     0.7436  -15.0337    5.4382 H        1 ZINC000008551256    0.0500
78     H78     0.7574  -13.8729    1.3225 H        1 ZINC000008551256    0.0500
79     H79    -0.8073  -14.0921    2.1423 H        1 ZINC000008551256    0.0800
80     H80     0.2540  -12.7377    2.5977 H        1 ZINC000008551256    0.0600
81     H81     1.1829  -16.3126    1.9699 H        1 ZINC000008551256    0.0500
82     H82     1.2075  -16.7599    3.6926 H        1 ZINC000008551256    0.0600
83     H83    -6.7344  -19.2346    0.9912 H        1 ZINC000008551256    0.0600
84     H84    -6.4576  -20.2086    2.4551 H        1 ZINC000008551256    0.1000
85     H85    -8.7388  -16.2657   -0.2383 H        1 ZINC000008551256    0.2300
86     H86   -11.9195  -12.8121   -1.3804 H        1 ZINC000008551256    0.4200
87     H87   -13.1932  -12.0343   -0.6088 H        1 ZINC000008551256    0.4000
88     H88   -13.4478  -13.8621    3.5614 H        1 ZINC000008551256    0.2000
89     H89   -11.8518  -17.7720    3.3085 H        1 ZINC000008551256    0.3500
@<TRIPOS>BOND
1     1     2     1
2     1     59    1
3     1     60    1
4     1     61    1
5     2     3     2
6     2     62    1
7     3     4     1
8     3     63    1
9     4     5     2
10    4     6     1
11    6     7     1
12    7     8     1
13    7     64    1
14    7     65    1
15    8     9     1
16    8     66    1
17    8     67    1
18    9     10    am
19    9     68    1
20    10    11    2
21    10    12    1
22    12    13    1
23    12    69    1
24    12    70    1
25    13    14    1
26    13    71    1
27    13    72    1
28    14    15    am
29    14    73    1
30    15    16    2
31    15    17    1
32    17    18    1
33    17    19    1
34    17    20    1
35    19    74    1
36    20    21    1
37    20    22    1
38    20    23    1
39    21    75    1
40    21    76    1
41    21    77    1
42    22    78    1
43    22    79    1
44    22    80    1
45    23    24    1
46    23    81    1
47    23    82    1
48    24    25    1
49    25    26    ar
50    25    27    ar
51    25    28    1
52    28    29    1
53    29    30    ar
54    29    31    ar
55    29    32    1
56    32    33    1
57    33    34    1
58    33    83    1
59    33    84    1
60    34    35    1
61    34    52    1
62    34    36    1
63    36    37    1
64    37    38    1
65    37    39    1
66    37    49    1
67    39    48    1
68    39    40    1
69    40    41    2
70    40    85    1
71    41    42    1
72    42    48    ar
73    42    43    ar
74    43    44    1
75    43    45    ar
76    44    86    1
77    44    87    1
78    45    46    ar
79    46    47    ar
80    46    88    1
81    47    48    ar
82    49    50    1
83    49    51    1
84    49    52    1
85    51    89    1
86    52    53    1
87    52    54    1
88    54    55    1
89    55    56    ar
90    55    57    ar
91    55    58    ar
@<TRIPOS>SUBSTRUCTURE
1   ZINC000008551256 1     RESIDUE    1   A     ZIN   1
@<TRIPOS>MOLECULE
ZINC000008551265
94    96    1     0     0
SMALL
USER_CHARGES
@<TRIPOS>ATOM
1      C1     -1.9973  -22.1853    1.9427 C.3      1 ZINC000008551265   -0.1500
2      C2     -1.7554  -20.6778    1.8433 C.3      1 ZINC000008551265   -0.1200
3      C3     -3.0956  -19.9549    1.6940 C.3      1 ZINC000008551265   -0.1100
4      C4     -2.8537  -18.4475    1.5946 C.3      1 ZINC000008551265   -0.1500
5      C5     -4.1737  -17.7355    1.4476 C.2      1 ZINC000008551265    0.3300
6      O6     -5.2067  -18.3714    1.4245 O.2      1 ZINC000008551265   -0.4500
7      S7     -4.2157  -16.0293    1.3130 S.3      1 ZINC000008551265   -0.1200
8      C8     -6.0011  -15.7693    1.1684 C.3      1 ZINC000008551265   -0.1200
9      C9     -6.2892  -14.2728    1.0328 C.3      1 ZINC000008551265    0.1300
10     N10    -7.7343  -14.0623    0.9157 N.am     1 ZINC000008551265   -0.7300
11     C11    -8.2250  -12.8139    0.7852 C.2      1 ZINC000008551265    0.5200
12     O12    -7.4704  -11.8647    0.7646 O.2      1 ZINC000008551265   -0.5300
13     C13    -9.7115  -12.5974    0.6647 C.3      1 ZINC000008551265   -0.1500
14     C14    -9.9996  -11.1009    0.5292 C.3      1 ZINC000008551265    0.1400
15     N15   -11.4447  -10.8904    0.4121 N.am     1 ZINC000008551265   -0.7400
16     C16   -11.9355   -9.6420    0.2815 C.2      1 ZINC000008551265    0.5000
17     O17   -11.1912   -8.6872    0.3542 O.2      1 ZINC000008551265   -0.5300
18     C18   -13.4090   -9.4326    0.0452 C.3      1 ZINC000008551265    0.1000
19     H19   -13.7823   -8.6716    0.7306 H        1 ZINC000008551265    0.1400
20     O20   -14.1066  -10.6593    0.2698 O.3      1 ZINC000008551265   -0.5500
21     C21   -13.6342   -8.9745   -1.3971 C.3      1 ZINC000008551265   -0.0900
22     C22   -13.0129   -7.5905   -1.5956 C.3      1 ZINC000008551265   -0.1400
23     C23   -12.9789   -9.9701   -2.3565 C.3      1 ZINC000008551265   -0.1400
24     C24   -15.1359   -8.9050   -1.6816 C.3      1 ZINC000008551265    0.1500
25     O25   -15.3462   -8.4772   -3.0288 O.3      1 ZINC000008551265   -0.7700
26     P26   -16.8107   -8.2925   -3.6717 P.3      1 ZINC000008551265    2.3000
27     O27   -17.6098   -9.6058   -3.5182 O.co2    1 ZINC000008551265   -1.1100
28     O28   -17.5527   -7.1500   -2.9429 O.co2    1 ZINC000008551265   -1.1100
29     O29   -16.6691   -7.9299   -5.2339 O.3      1 ZINC000008551265   -1.0900
30     P30   -17.6917   -7.9227   -6.4775 P.3      1 ZINC000008551265    2.2900
31     O31   -19.0193   -7.2589   -6.0487 O.co2    1 ZINC000008551265   -1.1000
32     O32   -17.9642   -9.3750   -6.9285 O.co2    1 ZINC000008551265   -1.1100
33     O33   -17.0467   -7.0938   -7.6978 O.3      1 ZINC000008551265   -0.7700
34     C34   -17.7520   -6.8172   -8.9094 C.3      1 ZINC000008551265    0.1400
35     C35   -16.8524   -6.0143   -9.8512 C.3      1 ZINC000008551265    0.0700
36     H36   -16.4803   -5.1210   -9.3495 H        1 ZINC000008551265    0.1000
37     O37   -15.7514   -6.8285  -10.3104 O.3      1 ZINC000008551265   -0.3500
38     C38   -15.2821   -6.1883  -11.5170 C.3      1 ZINC000008551265    0.2600
39     H39   -14.6692   -5.3207  -11.2725 H        1 ZINC000008551265    0.1200
40     N40   -14.5200   -7.1360  -12.3339 N.pl3    1 ZINC000008551265   -0.4500
41     C41   -14.6281   -8.4947  -12.3050 C.2      1 ZINC000008551265    0.2900
42     N42   -13.8029   -9.0245  -13.1606 N.2      1 ZINC000008551265   -0.4800
43     C43   -13.1149   -8.0426  -13.7911 C.ar     1 ZINC000008551265   -0.1000
44     C44   -12.1201   -8.0132  -14.7830 C.ar     1 ZINC000008551265    0.5000
45     N45   -11.6363   -9.1862  -15.3355 N.pl3    1 ZINC000008551265   -0.8300
46     N46   -11.6549   -6.8327  -15.1786 N.ar     1 ZINC000008551265   -0.6000
47     C47   -12.1109   -5.7085  -14.6574 C.ar     1 ZINC000008551265    0.3400
48     N48   -13.0413   -5.6876  -13.7263 N.ar     1 ZINC000008551265   -0.5400
49     C49   -13.5709   -6.8188  -13.2725 C.ar     1 ZINC000008551265    0.3000
50     C50   -16.5658   -5.7490  -12.2556 C.3      1 ZINC000008551265    0.0600
51     H51   -16.8641   -6.5027  -12.9844 H        1 ZINC000008551265    0.0700
52     O52   -16.3683   -4.4864  -12.8951 O.3      1 ZINC000008551265   -0.5000
53     C53   -17.6235   -5.6293  -11.1332 C.3      1 ZINC000008551265    0.1500
54     H54   -18.4448   -6.3247  -11.3067 H        1 ZINC000008551265    0.0800
55     O55   -18.1131   -4.2896  -11.0474 O.3      1 ZINC000008551265   -0.7200
56     P56   -19.6685   -3.9117  -11.2205 P.3      1 ZINC000008551265    2.1200
57     O57   -20.1927   -4.4701  -12.5872 O.co2    1 ZINC000008551265   -1.1900
58     O58   -20.4931   -4.5432  -10.0476 O.co2    1 ZINC000008551265   -1.1700
59     O59   -19.8334   -2.3539  -11.1952 O.co2    1 ZINC000008551265   -1.1700
60     H60    -1.0425  -22.7002    2.0491 H        1 ZINC000008551265    0.0500
61     H61    -2.6227  -22.3965    2.8102 H        1 ZINC000008551265    0.0500
62     H62    -2.4991  -22.5330    1.0398 H        1 ZINC000008551265    0.0600
63     H63    -1.2536  -20.3300    2.7463 H        1 ZINC000008551265    0.0600
64     H64    -1.1301  -20.4666    0.9759 H        1 ZINC000008551265    0.0600
65     H65    -3.5974  -20.3027    0.7911 H        1 ZINC000008551265    0.0700
66     H66    -3.7209  -20.1662    2.5615 H        1 ZINC000008551265    0.0700
67     H67    -2.3519  -18.0997    2.4976 H        1 ZINC000008551265    0.1100
68     H68    -2.2283  -18.2362    0.7272 H        1 ZINC000008551265    0.1100
69     H69    -6.3743  -16.2923    0.2879 H        1 ZINC000008551265    0.1000
70     H70    -6.4978  -16.1558    2.0583 H        1 ZINC000008551265    0.1000
71     H71    -5.9160  -13.7497    1.9133 H        1 ZINC000008551265    0.0800
72     H72    -5.7924  -13.8863    0.1429 H        1 ZINC000008551265    0.0800
73     H73    -8.3378  -14.8215    0.9322 H        1 ZINC000008551265    0.4000
74     H74   -10.0847  -13.1205   -0.2157 H        1 ZINC000008551265    0.1100
75     H75   -10.2083  -12.9839    1.5547 H        1 ZINC000008551265    0.1000
76     H76    -9.6265  -10.5778    1.4097 H        1 ZINC000008551265    0.0700
77     H77    -9.5029  -10.7144   -0.3607 H        1 ZINC000008551265    0.0800
78     H78   -12.0483  -11.6496    0.4285 H        1 ZINC000008551265    0.4000
79     H79   -13.8252  -11.3830   -0.3065 H        1 ZINC000008551265    0.3700
80     H80   -11.9322   -7.6559   -1.4692 H        1 ZINC000008551265    0.0600
81     H81   -13.2402   -7.2307   -2.5991 H        1 ZINC000008551265    0.0800
82     H82   -13.4236   -6.8990   -0.8599 H        1 ZINC000008551265    0.0500
83     H83   -13.4216  -10.9561   -2.2151 H        1 ZINC000008551265    0.0500
84     H84   -13.1394   -9.6438   -3.3841 H        1 ZINC000008551265    0.0800
85     H85   -11.9091  -10.0196   -2.1539 H        1 ZINC000008551265    0.0400
86     H86   -15.5785   -9.8910   -1.5402 H        1 ZINC000008551265    0.0600
87     H87   -15.6027   -8.1957   -0.9981 H        1 ZINC000008551265    0.0500
88     H88   -18.0339   -7.7551   -9.3880 H        1 ZINC000008551265    0.0600
89     H89   -18.6489   -6.2403   -8.6841 H        1 ZINC000008551265    0.1000
90     H90   -15.2990   -9.0495  -11.6660 H        1 ZINC000008551265    0.2300
91     H91   -11.9840  -10.0417  -15.0386 H        1 ZINC000008551265    0.4200
92     H92   -10.9494   -9.1529  -16.0196 H        1 ZINC000008551265    0.4000
93     H93   -11.7052   -4.7710  -15.0079 H        1 ZINC000008551265    0.2000
94     H94   -15.6730   -4.4905  -13.5672 H        1 ZINC000008551265    0.3500
@<TRIPOS>BOND
1     1     2     1
2     1     60    1
3     1     61    1
4     1     62    1
5     2     3     1
6     2     63    1
7     2     64    1
8     3     4     1
9     3     65    1
10    3     66    1
11    4     5     1
12    4     67    1
13    4     68    1
14    5     6     2
15    5     7     1
16    7     8     1
17    8     9     1
18    8     69    1
19    8     70    1
20    9     10    1
21    9     71    1
22    9     72    1
23    10    11    am
24    10    73    1
25    11    12    2
26    11    13    1
27    13    14    1
28    13    74    1
29    13    75    1
30    14    15    1
31    14    76    1
32    14    77    1
33    15    16    am
34    15    78    1
35    16    17    2
36    16    18    1
37    18    19    1
38    18    20    1
39    18    21    1
40    20    79    1
41    21    22    1
42    21    23    1
43    21    24    1
44    22    80    1
45    22    81    1
46    22    82    1
47    23    83    1
48    23    84    1
49    23    85    1
50    24    25    1
51    24    86    1
52    24    87    1
53    25    26    1
54    26    27    ar
55    26    28    ar
56    26    29    1
57    29    30    1
58    30    31    ar
59    30    32    ar
60    30    33    1
61    33    34    1
62    34    35    1
63    34    88    1
64    34    89    1
65    35    36    1
66    35    53    1
67    35    37    1
68    37    38    1
69    38    39    1
70    38    40    1
71    38    50    1
72    40    49    1
73    40    41    1
74    41    42    2
75    41    90    1
76    42    43    1
77    43    49    ar
78    43    44    ar
79    44    45    1
80    44    46    ar
81    45    91    1
82    45    92    1
83    46    47    ar
84    47    48    ar
85    47    93    1
86    48    49    ar
87    50    51    1
88    50    52    1
89    50    53    1
90    52    94    1
91    53    54    1
92    53    55    1
93    55    56    1
94    56    57    ar
95    56    58    ar
96    56    59    ar
@<TRIPOS>SUBSTRUCTURE
1   ZINC000008551265 1     RESIDUE    1   A     ZIN   1
@<TRIPOS>MOLECULE
ZINC000008551445
91    93    1     0     0
SMALL
USER_CHARGES
@<TRIPOS>ATOM
1      C1     -0.0985    1.3509    0.2822 C.3      1 ZINC000008551445   -0.1500
2      C2     -0.1133   -0.1556    0.0155 C.3      1 ZINC000008551445   -0.1000
3      C3      0.5901   -0.8836    1.1627 C.3      1 ZINC000008551445   -0.1300
4      C4     -1.5606   -0.6414   -0.0855 C.3      1 ZINC000008551445    0.1400
5      O5     -2.2415   -0.3681    1.1407 O.3      1 ZINC000008551445   -0.7600
6      P6     -3.7866   -0.7464    1.3890 P.3      1 ZINC000008551445    2.2900
7      O7     -4.6557   -0.1184    0.2767 O.co2    1 ZINC000008551445   -1.1000
8      O8     -3.9509   -2.2825    1.3654 O.co2    1 ZINC000008551445   -1.1100
9      O9     -4.2548   -0.1785    2.8209 O.3      1 ZINC000008551445   -1.0900
10     P10    -5.6875    0.0547    3.5174 P.3      1 ZINC000008551445    2.2900
11     O11    -6.6844    0.6047    2.4731 O.co2    1 ZINC000008551445   -1.1000
12     O12    -6.2135   -1.2867    4.0750 O.co2    1 ZINC000008551445   -1.1000
13     O13    -5.5331    1.1127    4.7211 O.3      1 ZINC000008551445   -0.7700
14     C14    -6.6453    1.6085    5.4689 C.3      1 ZINC000008551445    0.1400
15     C15    -6.1483    2.5907    6.5316 C.3      1 ZINC000008551445    0.0700
16     H16    -5.3807    2.1241    7.1491 H        1 ZINC000008551445    0.1000
17     O17    -5.6334    3.7875    5.9084 O.3      1 ZINC000008551445   -0.3600
18     C18    -5.6655    4.7977    6.9401 C.3      1 ZINC000008551445    0.2600
19     H19    -4.8245    4.6707    7.6218 H        1 ZINC000008551445    0.1200
20     N20    -5.6403    6.1359    6.3445 N.pl3    1 ZINC000008551445   -0.4500
21     C21    -6.0404    6.4653    5.0836 C.2      1 ZINC000008551445    0.2900
22     N22    -5.8814    7.7417    4.8859 N.2      1 ZINC000008551445   -0.4900
23     C23    -5.3706    8.3110    6.0040 C.ar     1 ZINC000008551445   -0.1000
24     C24    -5.0011    9.6170    6.3675 C.ar     1 ZINC000008551445    0.5000
25     N25    -5.1372   10.6657    5.4748 N.pl3    1 ZINC000008551445   -0.8300
26     N26    -4.5183    9.8219    7.5887 N.ar     1 ZINC000008551445   -0.6000
27     C27    -4.3854    8.8274    8.4472 C.ar     1 ZINC000008551445    0.3400
28     N28    -4.7178    7.5886    8.1506 N.ar     1 ZINC000008551445   -0.5400
29     C29    -5.2153    7.2885    6.9554 C.ar     1 ZINC000008551445    0.3000
30     C30    -6.9997    4.5617    7.6821 C.3      1 ZINC000008551445    0.0600
31     H31    -7.7809    5.2049    7.2771 H        1 ZINC000008551445    0.0700
32     O32    -6.8406    4.7912    9.0836 O.3      1 ZINC000008551445   -0.5000
33     C33    -7.3241    3.0741    7.4091 C.3      1 ZINC000008551445    0.1500
34     H34    -8.2659    2.9817    6.8681 H        1 ZINC000008551445    0.0800
35     O35    -7.3778    2.3403    8.6341 O.3      1 ZINC000008551445   -0.7200
36     P36    -8.6839    1.5312    9.1151 P.3      1 ZINC000008551445    2.1200
37     O37    -9.9162    2.4982    9.1433 O.co2    1 ZINC000008551445   -1.1900
38     O38    -8.9658    0.3550    8.1193 O.co2    1 ZINC000008551445   -1.1700
39     O39    -8.4408    0.9530   10.5508 O.co2    1 ZINC000008551445   -1.1700
40     C40     0.6157   -0.4483   -1.2974 C.3      1 ZINC000008551445    0.1100
41     H41     1.6142   -0.0124   -1.2635 H        1 ZINC000008551445    0.1200
42     O42     0.7190   -1.8618   -1.4801 O.3      1 ZINC000008551445   -0.5400
43     C43    -0.1555    0.1515   -2.4448 C.2      1 ZINC000008551445    0.4900
44     O44    -0.7013   -0.5707   -3.2519 O.2      1 ZINC000008551445   -0.5200
45     N45    -0.2388    1.4905   -2.5740 N.am     1 ZINC000008551445   -0.7300
46     C46    -1.0675    2.0742   -3.6317 C.3      1 ZINC000008551445    0.1300
47     C47    -0.9878    3.6004   -3.5583 C.3      1 ZINC000008551445   -0.1500
48     C48    -1.8403    4.2008   -4.6463 C.2      1 ZINC000008551445    0.5300
49     O49    -2.4515    3.4791   -5.4056 O.2      1 ZINC000008551445   -0.5200
50     N50    -1.9236    5.5398   -4.7755 N.am     1 ZINC000008551445   -0.7400
51     C51    -2.7523    6.1235   -5.8332 C.3      1 ZINC000008551445    0.1300
52     C52    -2.6726    7.6497   -5.7598 C.3      1 ZINC000008551445   -0.1200
53     S53    -3.6965    8.3708   -7.0665 S.3      1 ZINC000008551445   -0.0600
54     C54    -3.4343   10.0356   -6.7650 C.2      1 ZINC000008551445    0.3200
55     O55    -2.7095   10.3805   -5.8552 O.2      1 ZINC000008551445   -0.4400
56     C56    -4.1038   11.0725   -7.6296 C.3      1 ZINC000008551445   -0.1800
57     C57    -3.7053   12.4700   -7.1510 C.3      1 ZINC000008551445    0.0000
58     N58    -4.3579   13.4808   -7.9939 N.4      1 ZINC000008551445   -0.6400
59     H59    -4.0675   13.3580   -8.9523 H        1 ZINC000008551445    0.4300
60     H60    -5.3595   13.3763   -7.9299 H        1 ZINC000008551445    0.4400
61     H61    -4.0951   14.4025   -7.6782 H        1 ZINC000008551445    0.4400
62     H62     0.9273    1.7171    0.2410 H        1 ZINC000008551445    0.0500
63     H63    -0.6966    1.8597   -0.4738 H        1 ZINC000008551445    0.0600
64     H64    -0.5157    1.5492    1.2695 H        1 ZINC000008551445    0.0800
65     H65     0.0362   -0.7245    2.0879 H        1 ZINC000008551445    0.0800
66     H66     0.6331   -1.9505    0.9439 H        1 ZINC000008551445    0.0600
67     H67     1.6022   -0.4943    1.2737 H        1 ZINC000008551445    0.0500
68     H68    -2.0617   -0.1228   -0.9028 H        1 ZINC000008551445    0.0500
69     H69    -1.5712   -1.7147   -0.2755 H        1 ZINC000008551445    0.0500
70     H70    -7.3362    2.1185    4.7976 H        1 ZINC000008551445    0.0600
71     H71    -7.1569    0.7770    5.9537 H        1 ZINC000008551445    0.1000
72     H72    -6.4312    5.7695    4.3559 H        1 ZINC000008551445    0.2300
73     H73    -5.4912   10.5036    4.5864 H        1 ZINC000008551445    0.4100
74     H74    -4.8786   11.5629    5.7376 H        1 ZINC000008551445    0.4000
75     H75    -3.9887    9.0381    9.4294 H        1 ZINC000008551445    0.2000
76     H76    -6.5780    5.6946    9.3069 H        1 ZINC000008551445    0.3500
77     H77    -0.1335   -2.3166   -1.5195 H        1 ZINC000008551445    0.3900
78     H78     0.2500    2.0677   -1.9666 H        1 ZINC000008551445    0.4000
79     H79    -0.7064    1.7378   -4.6035 H        1 ZINC000008551445    0.0700
80     H80    -2.1021    1.7576   -3.4990 H        1 ZINC000008551445    0.0900
81     H81    -1.3490    3.9367   -2.5864 H        1 ZINC000008551445    0.1100
82     H82     0.0467    3.9170   -3.6909 H        1 ZINC000008551445    0.1000
83     H83    -1.4348    6.1170   -4.1681 H        1 ZINC000008551445    0.4000
84     H84    -2.3912    5.7871   -6.8050 H        1 ZINC000008551445    0.0800
85     H85    -3.7869    5.8069   -5.7005 H        1 ZINC000008551445    0.0800
86     H86    -3.0338    7.9860   -4.7879 H        1 ZINC000008551445    0.1100
87     H87    -1.6381    7.9663   -5.8924 H        1 ZINC000008551445    0.1100
88     H88    -3.7900   10.9398   -8.6650 H        1 ZINC000008551445    0.1300
89     H89    -5.1857   10.9596   -7.5605 H        1 ZINC000008551445    0.1300
90     H90    -4.0191   12.6027   -6.1157 H        1 ZINC000008551445    0.1400
91     H91    -2.6234   12.5829   -7.2201 H        1 ZINC000008551445    0.1400
@<TRIPOS>BOND
1     1     2     1
2     1     62    1
3     1     63    1
4     1     64    1
5     2     3     1
6     2     4     1
7     2     40    1
8     3     65    1
9     3     66    1
10    3     67    1
11    4     5     1
12    4     68    1
13    4     69    1
14    5     6     1
15    6     7     ar
16    6     8     ar
17    6     9     1
18    9     10    1
19    10    11    ar
20    10    12    ar
21    10    13    1
22    13    14    1
23    14    15    1
24    14    70    1
25    14    71    1
26    15    16    1
27    15    33    1
28    15    17    1
29    17    18    1
30    18    19    1
31    18    20    1
32    18    30    1
33    20    29    1
34    20    21    1
35    21    22    2
36    21    72    1
37    22    23    1
38    23    29    ar
39    23    24    ar
40    24    25    1
41    24    26    ar
42    25    73    1
43    25    74    1
44    26    27    ar
45    27    28    ar
46    27    75    1
47    28    29    ar
48    30    31    1
49    30    32    1
50    30    33    1
51    32    76    1
52    33    34    1
53    33    35    1
54    35    36    1
55    36    37    ar
56    36    38    ar
57    36    39    ar
58    40    41    1
59    40    42    1
60    40    43    1
61    42    77    1
62    43    44    2
63    43    45    am
64    45    46    1
65    45    78    1
66    46    47    1
67    46    79    1
68    46    80    1
69    47    48    1
70    47    81    1
71    47    82    1
72    48    49    2
73    48    50    am
74    50    51    1
75    50    83    1
76    51    52    1
77    51    84    1
78    51    85    1
79    52    53    1
80    52    86    1
81    52    87    1
82    53    54    1
83    54    55    2
84    54    56    1
85    56    57    1
86    56    88    1
87    56    89    1
88    57    58    1
89    57    90    1
90    57    91    1
91    58    59    1
92    58    60    1
93    58    61    1
@<TRIPOS>SUBSTRUCTURE
1   ZINC000008551445 1     RESIDUE    1   A     ZIN   1
@<TRIPOS>MOLECULE
ZINC000008551513
92    94    1     0     0
SMALL
USER_CHARGES
@<TRIPOS>ATOM
1      C1    -16.9930  -10.6928    1.8469 C.3      1 ZINC000008551513   -0.1300
2      C2    -15.5586  -11.1546    1.8674 C.2      1 ZINC000008551513   -0.0200
3      C3    -15.2408  -12.6198    2.0199 C.3      1 ZINC000008551513   -0.1300
4      C4    -14.5734  -10.2691    1.7508 C.2      1 ZINC000008551513   -0.2400
5      C5    -14.8836   -8.8390    1.6018 C.2      1 ZINC000008551513    0.3800
6      O6    -16.0416   -8.4662    1.5853 O.2      1 ZINC000008551513   -0.4500
7      S7    -13.5781   -7.6657    1.4474 S.3      1 ZINC000008551513   -0.1500
8      C8    -14.5418   -6.1406    1.3016 C.3      1 ZINC000008551513   -0.1100
9      C9    -13.5927   -4.9498    1.1526 C.3      1 ZINC000008551513    0.1400
10     N10   -14.3727   -3.7154    1.0347 N.am     1 ZINC000008551513   -0.7300
11     C11   -13.7438   -2.5318    0.8931 C.2      1 ZINC000008551513    0.5200
12     O12   -12.5321   -2.4887    0.8633 O.2      1 ZINC000008551513   -0.5300
13     C13   -14.5461   -1.2619    0.7718 C.3      1 ZINC000008551513   -0.1500
14     C14   -13.5970   -0.0712    0.6228 C.3      1 ZINC000008551513    0.1400
15     N15   -14.3770    1.1633    0.5048 N.am     1 ZINC000008551513   -0.7400
16     C16   -13.7481    2.3468    0.3632 C.2      1 ZINC000008551513    0.5000
17     O17   -12.5382    2.4021    0.4267 O.2      1 ZINC000008551513   -0.5300
18     C18   -14.5483    3.6017    0.1261 C.3      1 ZINC000008551513    0.1000
19     H19   -14.2074    4.3836    0.8047 H        1 ZINC000008551513    0.1400
20     O20   -15.9323    3.3358    0.3624 O.3      1 ZINC000008551513   -0.5500
21     C21   -14.3572    4.0627   -1.3202 C.3      1 ZINC000008551513   -0.0900
22     C22   -12.9030    4.4888   -1.5318 C.3      1 ZINC000008551513   -0.1400
23     C23   -14.6951    2.9126   -2.2710 C.3      1 ZINC000008551513   -0.1400
24     C24   -15.2824    5.2477   -1.6042 C.3      1 ZINC000008551513    0.1500
25     O25   -15.1039    5.6783   -2.9551 O.3      1 ZINC000008551513   -0.7700
26     P26   -15.9200    6.9079   -3.5985 P.3      1 ZINC000008551513    2.3000
27     O27   -17.4364    6.6627   -3.4325 O.co2    1 ZINC000008551513   -1.1100
28     O28   -15.5285    8.2183   -2.8797 O.co2    1 ZINC000008551513   -1.1100
29     O29   -15.5640    7.0276   -5.1641 O.3      1 ZINC000008551513   -1.0900
30     P30   -16.2323    7.8028   -6.4069 P.3      1 ZINC000008551513    2.2900
31     O31   -16.5874    9.2455   -5.9833 O.co2    1 ZINC000008551513   -1.1000
32     O32   -17.5165    7.0637   -6.8445 O.co2    1 ZINC000008551513   -1.1100
33     O33   -15.1923    7.8447   -7.6352 O.3      1 ZINC000008551513   -0.7700
34     C34   -15.4494    8.5540   -8.8489 C.3      1 ZINC000008551513    0.1400
35     C35   -14.2615    8.3869   -9.7986 C.3      1 ZINC000008551513    0.0700
36     H36   -13.3371    8.6873   -9.3054 H        1 ZINC000008551513    0.1000
37     O37   -14.1682    7.0186  -10.2512 O.3      1 ZINC000008551513   -0.3500
38     C38   -13.3857    7.0714  -11.4639 C.3      1 ZINC000008551513    0.2600
39     H39   -12.3262    7.1707  -11.2278 H        1 ZINC000008551513    0.1200
40     N40   -13.6168    5.8719  -12.2726 N.pl3    1 ZINC000008551513   -0.4500
41     C41   -14.7194    5.0713  -12.2313 C.2      1 ZINC000008551513    0.2900
42     N42   -14.5922    4.0952  -13.0826 N.2      1 ZINC000008551513   -0.4800
43     C43   -13.4034    4.2069  -13.7225 C.ar     1 ZINC000008551513   -0.1000
44     C44   -12.7420    3.4646  -14.7154 C.ar     1 ZINC000008551513    0.5000
45     N45   -13.3232    2.3317  -15.2575 N.pl3    1 ZINC000008551513   -0.8300
46     N46   -11.5455    3.8761  -15.1221 N.ar     1 ZINC000008551513   -0.6000
47     C47   -10.9835    4.9560  -14.6109 C.ar     1 ZINC000008551513    0.3400
48     N48   -11.5653    5.6818  -13.6793 N.ar     1 ZINC000008551513   -0.5400
49     C49   -12.7658    5.3517  -13.2148 C.ar     1 ZINC000008551513    0.3000
50     C50   -13.8915    8.3286  -12.2055 C.3      1 ZINC000008551513    0.0600
51     H51   -14.6635    8.0616  -12.9272 H        1 ZINC000008551513    0.0700
52     O52   -12.8083    8.9955  -12.8567 O.3      1 ZINC000008551513   -0.5000
53     C53   -14.4796    9.2163  -11.0835 C.3      1 ZINC000008551513    0.1500
54     H54   -15.5431    9.3877  -11.2500 H        1 ZINC000008551513    0.0800
55     O55   -13.7789   10.4595  -11.0096 O.3      1 ZINC000008551513   -0.7200
56     P56   -14.5038   11.8864  -11.1850 P.3      1 ZINC000008551513    2.1200
57     O57   -15.2790   11.9145  -12.5461 O.co2    1 ZINC000008551513   -1.1900
58     O58   -15.5109   12.1090  -10.0057 O.co2    1 ZINC000008551513   -1.1700
59     O59   -13.4268   13.0241  -11.1738 O.co2    1 ZINC000008551513   -1.1700
60     H60   -17.6533  -11.5535    1.9541 H        1 ZINC000008551513    0.0600
61     H61   -17.1633   -9.9995    2.6705 H        1 ZINC000008551513    0.0800
62     H62   -17.1999  -10.1917    0.9013 H        1 ZINC000008551513    0.0900
63     H63   -15.1853  -13.0840    1.0353 H        1 ZINC000008551513    0.0800
64     H64   -14.2839  -12.7328    2.5294 H        1 ZINC000008551513    0.0700
65     H65   -16.0234  -13.1022    2.6055 H        1 ZINC000008551513    0.0700
66     H66   -13.5454  -10.6000    1.7654 H        1 ZINC000008551513    0.1400
67     H67   -15.1884   -6.2016    0.4262 H        1 ZINC000008551513    0.1000
68     H68   -15.1517   -6.0094    2.1954 H        1 ZINC000008551513    0.1000
69     H69   -12.9461   -4.8888    2.0280 H        1 ZINC000008551513    0.0800
70     H70   -12.9827   -5.0810    0.2589 H        1 ZINC000008551513    0.0800
71     H71   -15.3418   -3.7499    1.0585 H        1 ZINC000008551513    0.4000
72     H72   -15.1927   -1.3229   -0.1036 H        1 ZINC000008551513    0.1100
73     H73   -15.1561   -1.1308    1.6656 H        1 ZINC000008551513    0.1000
74     H74   -12.9504   -0.0102    1.4982 H        1 ZINC000008551513    0.0700
75     H75   -12.9871   -0.2024   -0.2710 H        1 ZINC000008551513    0.0800
76     H76   -15.3461    1.1288    0.5286 H        1 ZINC000008551513    0.4000
77     H77   -16.3037    2.6486   -0.2075 H        1 ZINC000008551513    0.3700
78     H78   -12.2495    3.6256   -1.4056 H        1 ZINC000008551513    0.0600
79     H79   -12.7848    4.8900   -2.5383 H        1 ZINC000008551513    0.0800
80     H80   -12.6389    5.2543   -0.8022 H        1 ZINC000008551513    0.0500
81     H81   -15.7311    2.6090   -2.1202 H        1 ZINC000008551513    0.0500
82     H82   -14.5590    3.2410   -3.3014 H        1 ZINC000008551513    0.0800
83     H83   -14.0360    2.0683   -2.0686 H        1 ZINC000008551513    0.0400
84     H84   -16.3183    4.9442   -1.4535 H        1 ZINC000008551513    0.0600
85     H85   -15.0416    6.0671   -0.9269 H        1 ZINC000008551513    0.0500
86     H86   -16.3489    8.1562   -9.3186 H        1 ZINC000008551513    0.0600
87     H87   -15.5921    9.6118   -8.6282 H        1 ZINC000008551513    0.1000
88     H88   -15.5723    5.2241  -11.5867 H        1 ZINC000008551513    0.2300
89     H89   -14.1972    2.0417  -14.9526 H        1 ZINC000008551513    0.4200
90     H90   -12.8566    1.8276  -15.9424 H        1 ZINC000008551513    0.4000
91     H91   -10.0099    5.2550  -14.9702 H        1 ZINC000008551513    0.2000
92     H92   -12.3645    8.4608  -13.5292 H        1 ZINC000008551513    0.3500
@<TRIPOS>BOND
1     1     2     1
2     1     60    1
3     1     61    1
4     1     62    1
5     2     3     1
6     2     4     2
7     3     63    1
8     3     64    1
9     3     65    1
10    4     5     1
11    4     66    1
12    5     6     2
13    5     7     1
14    7     8     1
15    8     9     1
16    8     67    1
17    8     68    1
18    9     10    1
19    9     69    1
20    9     70    1
21    10    11    am
22    10    71    1
23    11    12    2
24    11    13    1
25    13    14    1
26    13    72    1
27    13    73    1
28    14    15    1
29    14    74    1
30    14    75    1
31    15    16    am
32    15    76    1
33    16    17    2
34    16    18    1
35    18    19    1
36    18    20    1
37    18    21    1
38    20    77    1
39    21    22    1
40    21    23    1
41    21    24    1
42    22    78    1
43    22    79    1
44    22    80    1
45    23    81    1
46    23    82    1
47    23    83    1
48    24    25    1
49    24    84    1
50    24    85    1
51    25    26    1
52    26    27    ar
53    26    28    ar
54    26    29    1
55    29    30    1
56    30    31    ar
57    30    32    ar
58    30    33    1
59    33    34    1
60    34    35    1
61    34    86    1
62    34    87    1
63    35    36    1
64    35    53    1
65    35    37    1
66    37    38    1
67    38    39    1
68    38    40    1
69    38    50    1
70    40    49    1
71    40    41    1
72    41    42    2
73    41    88    1
74    42    43    1
75    43    49    ar
76    43    44    ar
77    44    45    1
78    44    46    ar
79    45    89    1
80    45    90    1
81    46    47    ar
82    47    48    ar
83    47    91    1
84    48    49    ar
85    50    51    1
86    50    52    1
87    50    53    1
88    52    92    1
89    53    54    1
90    53    55    1
91    55    56    1
92    56    57    ar
93    56    58    ar
94    56    59    ar
@<TRIPOS>SUBSTRUCTURE
1   ZINC000008551513 1     RESIDUE    1   A     ZIN   1
@<TRIPOS>MOLECULE
ZINC000008551530
92    94    1     0     0
SMALL
USER_CHARGES
@<TRIPOS>ATOM
1      C1      9.3419   -4.8225  -14.8973 C.3      1 ZINC000008551530   -0.1300
2      C2      8.8482   -5.9754  -14.0619 C.2      1 ZINC000008551530   -0.0600
3      C3      8.0806   -5.7466  -13.0004 C.2      1 ZINC000008551530   -0.1900
4      C4      7.7044   -4.3343  -12.6328 C.3      1 ZINC000008551530   -0.1200
5      C5      7.5986   -6.8719  -12.1849 C.2      1 ZINC000008551530    0.3900
6      O6      7.9023   -8.0121  -12.4816 O.2      1 ZINC000008551530   -0.4500
7      S7      6.5815   -6.5687  -10.7784 S.3      1 ZINC000008551530   -0.1400
8      C8      6.3198   -8.2664  -10.2080 C.3      1 ZINC000008551530   -0.1200
9      C9      5.4373   -8.2542   -8.9581 C.3      1 ZINC000008551530    0.1400
10     N10     5.2255   -9.6283   -8.4964 N.am     1 ZINC000008551530   -0.7300
11     C11     4.4736   -9.8634   -7.4028 C.2      1 ZINC000008551530    0.5200
12     O12     3.9725   -8.9373   -6.8010 O.2      1 ZINC000008551530   -0.5300
13     C13     4.2557  -11.2769   -6.9279 C.3      1 ZINC000008551530   -0.1500
14     C14     3.3732  -11.2646   -5.6781 C.3      1 ZINC000008551530    0.1400
15     N15     3.1614  -12.6387   -5.2164 N.am     1 ZINC000008551530   -0.7400
16     C16     2.4095  -12.8738   -4.1228 C.2      1 ZINC000008551530    0.5000
17     O17     1.9839  -11.9455   -3.4685 O.2      1 ZINC000008551530   -0.5300
18     C18     2.0978  -14.2901   -3.7130 C.3      1 ZINC000008551530    0.1000
19     H19     1.0205  -14.4048   -3.5929 H        1 ZINC000008551530    0.1400
20     O20     2.5634  -15.1908   -4.7199 O.3      1 ZINC000008551530   -0.5500
21     C21     2.7948  -14.6026   -2.3873 C.3      1 ZINC000008551530   -0.0900
22     C22     4.2911  -14.3107   -2.5166 C.3      1 ZINC000008551530   -0.1400
23     C23     2.1990  -13.7309   -1.2800 C.3      1 ZINC000008551530   -0.1400
24     C24     2.5912  -16.0786   -2.0396 C.3      1 ZINC000008551530    0.1500
25     O25     3.2422  -16.3704   -0.8014 O.3      1 ZINC000008551530   -0.7700
26     P26     3.2337  -17.8336   -0.1298 P.3      1 ZINC000008551530    2.3000
27     O27     1.7751  -18.3144    0.0388 O.co2    1 ZINC000008551530   -1.1100
28     O28     3.9998  -18.8215   -1.0376 O.co2    1 ZINC000008551530   -1.1100
29     O29     3.9466  -17.7665    1.3122 O.3      1 ZINC000008551530   -1.0900
30     P30     3.9961  -18.7544    2.5824 P.3      1 ZINC000008551530    2.2900
31     O31     4.2425  -20.2014    2.1002 O.co2    1 ZINC000008551530   -1.1000
32     O32     2.6517  -18.6861    3.3406 O.co2    1 ZINC000008551530   -1.1100
33     O33     5.1899  -18.3056    3.5651 O.3      1 ZINC000008551530   -0.7700
34     C34     5.5588  -19.0461    4.7303 C.3      1 ZINC000008551530    0.1400
35     C35     6.7239  -18.3455    5.4322 C.3      1 ZINC000008551530    0.0700
36     H36     7.5475  -18.1901    4.7354 H        1 ZINC000008551530    0.1000
37     O37     6.2910  -17.0849    5.9883 O.3      1 ZINC000008551530   -0.3500
38     C38     7.2636  -16.7643    7.0067 C.3      1 ZINC000008551530    0.2600
39     H39     8.1713  -16.3666    6.5529 H        1 ZINC000008551530    0.1200
40     N40     6.7061  -15.8006    7.9589 N.pl3    1 ZINC000008551530   -0.4500
41     C41     5.3837  -15.5971    8.2197 C.2      1 ZINC000008551530    0.2900
42     N42     5.2459  -14.6666    9.1191 N.2      1 ZINC000008551530   -0.4800
43     C43     6.4676  -14.2151    9.4916 C.ar     1 ZINC000008551530   -0.1000
44     C44     6.9287  -13.2456   10.3982 C.ar     1 ZINC000008551530    0.5000
45     N45     6.0386  -12.5036   11.1547 N.pl3    1 ZINC000008551530   -0.8300
46     N46     8.2395  -13.0580   10.5125 N.ar     1 ZINC000008551530   -0.6000
47     C47     9.0961  -13.7616    9.7950 C.ar     1 ZINC000008551530    0.3400
48     N48     8.7102  -14.6794    8.9337 N.ar     1 ZINC000008551530   -0.5400
49     C49     7.4195  -14.9414    8.7560 C.ar     1 ZINC000008551530    0.2900
50     C50     7.5578  -18.1087    7.7086 C.3      1 ZINC000008551530    0.0600
51     H51     6.9322  -18.2222    8.5939 H        1 ZINC000008551530    0.0700
52     O52     8.9402  -18.1985    8.0590 O.3      1 ZINC000008551530   -0.5000
53     C53     7.1965  -19.1743    6.6472 C.3      1 ZINC000008551530    0.1500
54     H54     6.3913  -19.8146    7.0075 H        1 ZINC000008551530    0.0800
55     O55     8.3445  -19.9563    6.3118 O.3      1 ZINC000008551530   -0.7200
56     P56     8.3984  -21.5556    6.4896 P.3      1 ZINC000008551530    2.1200
57     O57     8.0463  -21.9287    7.9699 O.co2    1 ZINC000008551530   -1.1900
58     O58     7.3631  -22.2238    5.5221 O.co2    1 ZINC000008551530   -1.1700
59     O59     9.8385  -22.0705    6.1497 O.co2    1 ZINC000008551530   -1.1700
60     H60     8.4901   -4.2755  -15.3014 H        1 ZINC000008551530    0.0800
61     H61     9.9413   -4.1554  -14.2778 H        1 ZINC000008551530    0.0800
62     H62     9.9515   -5.2026  -15.7171 H        1 ZINC000008551530    0.0700
63     H63     9.1177   -6.9875  -14.3253 H        1 ZINC000008551530    0.1300
64     H64     6.7759   -4.0632  -13.1352 H        1 ZINC000008551530    0.0800
65     H65     7.5678   -4.2638  -11.5537 H        1 ZINC000008551530    0.0700
66     H66     8.4977   -3.6544  -12.9438 H        1 ZINC000008551530    0.0700
67     H67     5.8297   -8.8421  -10.9932 H        1 ZINC000008551530    0.1000
68     H68     7.2809   -8.7219   -9.9696 H        1 ZINC000008551530    0.1000
69     H69     5.9274   -7.6785   -8.1729 H        1 ZINC000008551530    0.0800
70     H70     4.4762   -7.7987   -9.1965 H        1 ZINC000008551530    0.0800
71     H71     5.6263  -10.3689   -8.9778 H        1 ZINC000008551530    0.4000
72     H72     3.7656  -11.8525   -7.7131 H        1 ZINC000008551530    0.1000
73     H73     5.2169  -11.7323   -6.6896 H        1 ZINC000008551530    0.1100
74     H74     3.8634  -10.6890   -4.8929 H        1 ZINC000008551530    0.0800
75     H75     2.4121  -10.8091   -5.9164 H        1 ZINC000008551530    0.0700
76     H76     3.5622  -13.3793   -5.6978 H        1 ZINC000008551530    0.4000
77     H77     3.5159  -15.1432   -4.8801 H        1 ZINC000008551530    0.3700
78     H78     4.4361  -13.2592   -2.7643 H        1 ZINC000008551530    0.0400
79     H79     4.7877  -14.5333   -1.5722 H        1 ZINC000008551530    0.0800
80     H80     4.7155  -14.9317   -3.3055 H        1 ZINC000008551530    0.0500
81     H81     1.1161  -13.8538   -1.2638 H        1 ZINC000008551530    0.0500
82     H82     2.6133  -14.0322   -0.3178 H        1 ZINC000008551530    0.0800
83     H83     2.4432  -12.6856   -1.4694 H        1 ZINC000008551530    0.0600
84     H84     1.5252  -16.2865   -1.9474 H        1 ZINC000008551530    0.0500
85     H85     3.0157  -16.6995   -2.8284 H        1 ZINC000008551530    0.0600
86     H86     4.7076  -19.1038    5.4088 H        1 ZINC000008551530    0.0600
87     H87     5.8613  -20.0524    4.4406 H        1 ZINC000008551530    0.1000
88     H88     4.5702  -16.1291    7.7490 H        1 ZINC000008551530    0.2300
89     H89     5.0842  -12.6500   11.0625 H        1 ZINC000008551530    0.4200
90     H90     6.3692  -11.8371   11.7772 H        1 ZINC000008551530    0.4000
91     H91    10.1529  -13.5770    9.9192 H        1 ZINC000008551530    0.2000
92     H92     9.2345  -17.5155    8.6770 H        1 ZINC000008551530    0.3500
@<TRIPOS>BOND
1     1     2     1
2     1     60    1
3     1     61    1
4     1     62    1
5     2     3     2
6     2     63    1
7     3     4     1
8     3     5     1
9     4     64    1
10    4     65    1
11    4     66    1
12    5     6     2
13    5     7     1
14    7     8     1
15    8     9     1
16    8     67    1
17    8     68    1
18    9     10    1
19    9     69    1
20    9     70    1
21    10    11    am
22    10    71    1
23    11    12    2
24    11    13    1
25    13    14    1
26    13    72    1
27    13    73    1
28    14    15    1
29    14    74    1
30    14    75    1
31    15    16    am
32    15    76    1
33    16    17    2
34    16    18    1
35    18    19    1
36    18    20    1
37    18    21    1
38    20    77    1
39    21    22    1
40    21    23    1
41    21    24    1
42    22    78    1
43    22    79    1
44    22    80    1
45    23    81    1
46    23    82    1
47    23    83    1
48    24    25    1
49    24    84    1
50    24    85    1
51    25    26    1
52    26    27    ar
53    26    28    ar
54    26    29    1
55    29    30    1
56    30    31    ar
57    30    32    ar
58    30    33    1
59    33    34    1
60    34    35    1
61    34    86    1
62    34    87    1
63    35    36    1
64    35    53    1
65    35    37    1
66    37    38    1
67    38    39    1
68    38    40    1
69    38    50    1
70    40    49    1
71    40    41    1
72    41    42    2
73    41    88    1
74    42    43    1
75    43    49    ar
76    43    44    ar
77    44    45    1
78    44    46    ar
79    45    89    1
80    45    90    1
81    46    47    ar
82    47    48    ar
83    47    91    1
84    48    49    ar
85    50    51    1
86    50    52    1
87    50    53    1
88    52    92    1
89    53    54    1
90    53    55    1
91    55    56    1
92    56    57    ar
93    56    58    ar
94    56    59    ar
@<TRIPOS>SUBSTRUCTURE
1   ZINC000008551530 1     RESIDUE    1   A     ZIN   1
@<TRIPOS>MOLECULE
ZINC000008551567
89    91    1     0     0
SMALL
USER_CHARGES
@<TRIPOS>ATOM
1      C1     -2.7082  -16.1047   -0.7902 C.2      1 ZINC000008551567   -0.0900
2      C2     -2.2865  -14.8521   -0.6433 C.2      1 ZINC000008551567   -0.1800
3      C3     -3.2852  -13.7335   -0.4938 C.3      1 ZINC000008551567   -0.1200
4      C4     -0.8453  -14.5585   -0.6266 C.2      1 ZINC000008551567    0.3800
5      O5     -0.0390  -15.4616   -0.7473 O.2      1 ZINC000008551567   -0.4500
6      S6     -0.2865  -12.8988   -0.4319 S.3      1 ZINC000008551567   -0.1400
7      C7      1.5035  -13.1612   -0.4876 C.3      1 ZINC000008551567   -0.1200
8      C8      2.2208  -11.8186   -0.3336 C.3      1 ZINC000008551567    0.1400
9      N9      3.6696  -12.0310   -0.3786 N.am     1 ZINC000008551567   -0.7300
10     C10     4.5084  -10.9825   -0.2621 C.2      1 ZINC000008551567    0.5200
11     O11     4.0637   -9.8631   -0.1199 O.2      1 ZINC000008551567   -0.5300
12     C12     5.9987  -11.2010   -0.3084 C.3      1 ZINC000008551567   -0.1500
13     C13     6.7161   -9.8583   -0.1544 C.3      1 ZINC000008551567    0.1400
14     N14     8.1649  -10.0707   -0.1995 N.am     1 ZINC000008551567   -0.7400
15     C15     9.0036   -9.0222   -0.0829 C.2      1 ZINC000008551567    0.5000
16     O16     8.5609   -7.8942   -0.0322 O.2      1 ZINC000008551567   -0.5300
17     C17    10.4916   -9.2514   -0.0155 C.3      1 ZINC000008551567    0.1000
18     H18    10.8970   -8.7501    0.8633 H        1 ZINC000008551567    0.1400
19     O19    10.7541  -10.6534    0.0724 O.3      1 ZINC000008551567   -0.5500
20     C20    11.1521   -8.6868   -1.2748 C.3      1 ZINC000008551567   -0.0900
21     C21    10.4882   -9.2912   -2.5137 C.3      1 ZINC000008551567   -0.1400
22     C22    10.9876   -7.1659   -1.2988 C.3      1 ZINC000008551567   -0.1400
23     C23    12.6411   -9.0388   -1.2712 C.3      1 ZINC000008551567    0.1500
24     O24    13.2580   -8.5115   -2.4474 O.3      1 ZINC000008551567   -0.7700
25     P25    14.8242   -8.6935   -2.7729 P.3      1 ZINC000008551567    2.3000
26     O26    15.6615   -8.1657   -1.5865 O.co2    1 ZINC000008551567   -1.1100
27     O27    15.1333  -10.1908   -2.9955 O.co2    1 ZINC000008551567   -1.1100
28     O28    15.1958   -7.8653   -4.1025 O.3      1 ZINC000008551567   -1.0900
29     P29    16.5797   -7.3869   -4.7720 P.3      1 ZINC000008551567    2.2900
30     O30    17.5919   -8.5541   -4.7521 O.co2    1 ZINC000008551567   -1.1000
31     O31    17.1528   -6.1946   -3.9739 O.co2    1 ZINC000008551567   -1.1100
32     O32    16.3116   -6.9349   -6.2938 O.3      1 ZINC000008551567   -0.7700
33     C33    17.3590   -6.5564   -7.1893 C.3      1 ZINC000008551567    0.1400
34     C34    16.7598   -6.1865   -8.5476 C.3      1 ZINC000008551567    0.0700
35     H35    16.1389   -7.0004   -8.9219 H        1 ZINC000008551567    0.1000
36     O36    15.9860   -4.9716   -8.4418 O.3      1 ZINC000008551567   -0.3500
37     C37    15.8978   -4.4582   -9.7888 C.3      1 ZINC000008551567    0.2600
38     H38    15.1452   -5.0065  -10.3553 H        1 ZINC000008551567    0.1200
39     N39    15.5788   -3.0284   -9.7697 N.pl3    1 ZINC000008551567   -0.4500
40     C40    15.8213   -2.1615   -8.7460 C.2      1 ZINC000008551567    0.2900
41     N41    15.4104   -0.9690   -9.0665 N.2      1 ZINC000008551567   -0.4800
42     C42    14.8797   -0.9946  -10.3127 C.ar     1 ZINC000008551567   -0.1000
43     C43    14.2959   -0.0361  -11.1581 C.ar     1 ZINC000008551567    0.5000
44     N44    14.1692    1.2813  -10.7536 N.pl3    1 ZINC000008551567   -0.8300
45     N45    13.8687   -0.4239  -12.3554 N.ar     1 ZINC000008551567   -0.6000
46     C46    13.9859   -1.6786  -12.7499 C.ar     1 ZINC000008551567    0.3400
47     N47    14.5253   -2.6102  -11.9920 N.ar     1 ZINC000008551567   -0.5400
48     C48    14.9868   -2.3152  -10.7812 C.ar     1 ZINC000008551567    0.3000
49     C49    17.3005   -4.6907  -10.3925 C.3      1 ZINC000008551567    0.0600
50     H50    17.9162   -3.7978  -10.2833 H        1 ZINC000008551567    0.0700
51     O51    17.1982   -5.0614  -11.7688 O.3      1 ZINC000008551567   -0.5000
52     C52    17.8808   -5.8567   -9.5580 C.3      1 ZINC000008551567    0.1500
53     H53    18.7833   -5.5401   -9.0353 H        1 ZINC000008551567    0.0800
54     O54    18.1568   -6.9821  -10.3943 O.3      1 ZINC000008551567   -0.7200
55     P55    19.6225   -7.6340  -10.5316 P.3      1 ZINC000008551567    2.1200
56     O56    20.6486   -6.5279  -10.9534 O.co2    1 ZINC000008551567   -1.1900
57     O57    20.0522   -8.2476   -9.1556 O.co2    1 ZINC000008551567   -1.1700
58     O58    19.5929   -8.7610  -11.6195 O.co2    1 ZINC000008551567   -1.1700
59     H59    -1.9925  -16.9064   -0.8973 H        1 ZINC000008551567    0.1200
60     H60    -3.7663  -16.3208   -0.7980 H        1 ZINC000008551567    0.1200
61     H61    -3.5125  -13.5880    0.5622 H        1 ZINC000008551567    0.0800
62     H62    -2.8663  -12.8151   -0.9052 H        1 ZINC000008551567    0.0800
63     H63    -4.1991  -13.9882   -1.0304 H        1 ZINC000008551567    0.0700
64     H64     1.7987  -13.8260    0.3242 H        1 ZINC000008551567    0.1000
65     H65     1.7753  -13.6109   -1.4426 H        1 ZINC000008551567    0.1000
66     H66     1.9256  -11.1537   -1.1454 H        1 ZINC000008551567    0.0800
67     H67     1.9490  -11.3689    0.6214 H        1 ZINC000008551567    0.0800
68     H68     4.0253  -12.9262   -0.4924 H        1 ZINC000008551567    0.4000
69     H69     6.2939  -11.8658    0.5034 H        1 ZINC000008551567    0.1000
70     H70     6.2705  -11.6507   -1.2634 H        1 ZINC000008551567    0.1100
71     H71     6.4209   -9.1935   -0.9662 H        1 ZINC000008551567    0.0800
72     H72     6.4443   -9.4086    0.8006 H        1 ZINC000008551567    0.0700
73     H73     8.5205  -10.9660   -0.3132 H        1 ZINC000008551567    0.4000
74     H74    10.4204  -11.1638   -0.6781 H        1 ZINC000008551567    0.3700
75     H75     9.4274   -9.0405   -2.5162 H        1 ZINC000008551567    0.0400
76     H76    10.9587   -8.8890   -3.4108 H        1 ZINC000008551567    0.0800
77     H77    10.6053  -10.3748   -2.4966 H        1 ZINC000008551567    0.0500
78     H78    11.3584   -6.7455   -0.3640 H        1 ZINC000008551567    0.0500
79     H79    11.5541   -6.7523   -2.1332 H        1 ZINC000008551567    0.0800
80     H80     9.9331   -6.9163   -1.4164 H        1 ZINC000008551567    0.0600
81     H81    13.1141   -8.6082   -0.3887 H        1 ZINC000008551567    0.0500
82     H82    12.7582  -10.1223   -1.2541 H        1 ZINC000008551567    0.0600
83     H83    17.8928   -5.6979   -6.7817 H        1 ZINC000008551567    0.0600
84     H84    18.0508   -7.3896   -7.3121 H        1 ZINC000008551567    0.1000
85     H85    16.2853   -2.4255   -7.8072 H        1 ZINC000008551567    0.2300
86     H86    14.4851    1.5522   -9.8774 H        1 ZINC000008551567    0.4200
87     H87    13.7643    1.9338  -11.3463 H        1 ZINC000008551567    0.4000
88     H88    13.6254   -1.9509  -13.7308 H        1 ZINC000008551567    0.2000
89     H89    16.7855   -4.3887  -12.3277 H        1 ZINC000008551567    0.3500
@<TRIPOS>BOND
1     1     2     2
2     1     59    1
3     1     60    1
4     2     3     1
5     2     4     1
6     3     61    1
7     3     62    1
8     3     63    1
9     4     5     2
10    4     6     1
11    6     7     1
12    7     8     1
13    7     64    1
14    7     65    1
15    8     9     1
16    8     66    1
17    8     67    1
18    9     10    am
19    9     68    1
20    10    11    2
21    10    12    1
22    12    13    1
23    12    69    1
24    12    70    1
25    13    14    1
26    13    71    1
27    13    72    1
28    14    15    am
29    14    73    1
30    15    16    2
31    15    17    1
32    17    18    1
33    17    19    1
34    17    20    1
35    19    74    1
36    20    21    1
37    20    22    1
38    20    23    1
39    21    75    1
40    21    76    1
41    21    77    1
42    22    78    1
43    22    79    1
44    22    80    1
45    23    24    1
46    23    81    1
47    23    82    1
48    24    25    1
49    25    26    ar
50    25    27    ar
51    25    28    1
52    28    29    1
53    29    30    ar
54    29    31    ar
55    29    32    1
56    32    33    1
57    33    34    1
58    33    83    1
59    33    84    1
60    34    35    1
61    34    52    1
62    34    36    1
63    36    37    1
64    37    38    1
65    37    39    1
66    37    49    1
67    39    48    1
68    39    40    1
69    40    41    2
70    40    85    1
71    41    42    1
72    42    48    ar
73    42    43    ar
74    43    44    1
75    43    45    ar
76    44    86    1
77    44    87    1
78    45    46    ar
79    46    47    ar
80    46    88    1
81    47    48    ar
82    49    50    1
83    49    51    1
84    49    52    1
85    51    89    1
86    52    53    1
87    52    54    1
88    54    55    1
89    55    56    ar
90    55    57    ar
91    55    58    ar
@<TRIPOS>SUBSTRUCTURE
1   ZINC000008551567 1     RESIDUE    1   A     ZIN   1
@<TRIPOS>MOLECULE
ZINC000008551531
92    94    1     0     0
SMALL
USER_CHARGES
@<TRIPOS>ATOM
1      C1     10.8603   -6.9402  -15.1493 C.3      1 ZINC000008551531   -0.1300
2      C2     10.1790   -7.9454  -14.2569 C.2      1 ZINC000008551531   -0.0600
3      C3      9.4593   -7.5319  -13.2179 C.2      1 ZINC000008551531   -0.1900
4      C4      9.3250   -6.0582  -12.9329 C.3      1 ZINC000008551531   -0.1200
5      C5      8.7943   -8.5130  -12.3467 C.2      1 ZINC000008551531    0.3900
6      O6      8.9027   -9.7028  -12.5768 O.2      1 ZINC000008551531   -0.4500
7      S7      7.8407   -7.9652  -10.9701 S.3      1 ZINC000008551531   -0.1400
8      C8      7.2970   -9.5604  -10.3097 C.3      1 ZINC000008551531   -0.1200
9      C9      6.4275   -9.3303   -9.0720 C.3      1 ZINC000008551531    0.1400
10     N10     5.9875  -10.6213   -8.5374 N.am     1 ZINC000008551531   -0.7300
11     C11     5.2054  -10.6654   -7.4406 C.2      1 ZINC000008551531    0.5200
12     O12     4.8660   -9.6362   -6.8962 O.2      1 ZINC000008551531   -0.5300
13     C13     4.7528  -11.9935   -6.8908 C.3      1 ZINC000008551531   -0.1500
14     C14     3.8833  -11.7634   -5.6531 C.3      1 ZINC000008551531    0.1400
15     N15     3.4432  -13.0544   -5.1185 N.am     1 ZINC000008551531   -0.7400
16     C16     2.6612  -13.0985   -4.0218 C.2      1 ZINC000008551531    0.5000
17     O17     2.3982  -12.0770   -3.4231 O.2      1 ZINC000008551531   -0.5300
18     C18     2.1136  -14.4169   -3.5392 C.3      1 ZINC000008551531    0.1000
19     H19     2.2875  -14.5122   -2.4674 H        1 ZINC000008551531    0.1400
20     O20     2.7700  -15.4850   -4.2250 O.3      1 ZINC000008551531   -0.5500
21     C21     0.6107  -14.4782   -3.8195 C.3      1 ZINC000008551531   -0.0900
22     C22    -0.1097  -13.4292   -2.9701 C.3      1 ZINC000008551531   -0.1400
23     C23     0.3564  -14.1965   -5.3017 C.3      1 ZINC000008551531   -0.1400
24     C24     0.0826  -15.8702   -3.4669 C.3      1 ZINC000008551531    0.1500
25     O25    -1.3211  -15.9275   -3.7287 O.3      1 ZINC000008551531   -0.7700
26     P26    -2.2079  -17.2465   -3.4719 P.3      1 ZINC000008551531    2.3000
27     O27    -1.5892  -18.4395   -4.2342 O.co2    1 ZINC000008551531   -1.1100
28     O28    -2.2370  -17.5611   -1.9595 O.co2    1 ZINC000008551531   -1.1100
29     O29    -3.7089  -16.9945   -3.9966 O.3      1 ZINC000008551531   -1.0900
30     P30    -4.9595  -17.9578   -4.3132 P.3      1 ZINC000008551531    2.2900
31     O31    -5.1204  -18.9852   -3.1706 O.co2    1 ZINC000008551531   -1.1000
32     O32    -4.7120  -18.7024   -5.6442 O.co2    1 ZINC000008551531   -1.1100
33     O33    -6.3003  -17.0746   -4.4336 O.3      1 ZINC000008551531   -0.7700
34     C34    -7.5974  -17.6486   -4.6069 C.3      1 ZINC000008551531    0.1400
35     C35    -8.6423  -16.5337   -4.6838 C.3      1 ZINC000008551531    0.0700
36     H36    -8.5663  -15.8827   -3.8128 H        1 ZINC000008551531    0.1000
37     O37    -8.4746  -15.7703   -5.8983 O.3      1 ZINC000008551531   -0.3500
38     C38    -9.7438  -15.1159   -6.1146 C.3      1 ZINC000008551531    0.2600
39     H39    -9.8386  -14.2471   -5.4632 H        1 ZINC000008551531    0.1200
40     N40    -9.8794  -14.7172   -7.5178 N.pl3    1 ZINC000008551531   -0.4500
41     C41    -9.2329  -15.2745   -8.5807 C.2      1 ZINC000008551531    0.2900
42     N42    -9.5882  -14.6764   -9.6806 N.2      1 ZINC000008551531   -0.4800
43     C43   -10.4827  -13.7001   -9.3943 C.ar     1 ZINC000008551531   -0.1000
44     C44   -11.1912  -12.7550  -10.1553 C.ar     1 ZINC000008551531    0.5000
45     N45   -11.0378  -12.6936  -11.5292 N.pl3    1 ZINC000008551531   -0.8300
46     N46   -12.0125  -11.9217   -9.5248 N.ar     1 ZINC000008551531   -0.6000
47     C47   -12.1655  -11.9734   -8.2143 C.ar     1 ZINC000008551531    0.3400
48     N48   -11.5227  -12.8411   -7.4614 N.ar     1 ZINC000008551531   -0.5400
49     C49   -10.6848  -13.7185   -8.0038 C.ar     1 ZINC000008551531    0.3000
50     C50   -10.8034  -16.1794   -5.7504 C.3      1 ZINC000008551531    0.0600
51     H51   -11.1297  -16.7144   -6.6422 H        1 ZINC000008551531    0.0700
52     O52   -11.9191  -15.5712   -5.0967 O.3      1 ZINC000008551531   -0.5000
53     C53   -10.0623  -17.1335   -4.7845 C.3      1 ZINC000008551531    0.1500
54     H54   -10.0215  -18.1408   -5.1991 H        1 ZINC000008551531    0.0800
55     O55   -10.6996  -17.1455   -3.5055 O.3      1 ZINC000008551531   -0.7200
56     P56   -11.2853  -18.4844   -2.8301 P.3      1 ZINC000008551531    2.1200
57     O57   -12.2937  -19.1681   -3.8150 O.co2    1 ZINC000008551531   -1.1900
58     O58   -10.1083  -19.4708   -2.5199 O.co2    1 ZINC000008551531   -1.1700
59     O59   -12.0238  -18.1174   -1.4980 O.co2    1 ZINC000008551531   -1.1700
60     H60    10.1128   -6.2819  -15.5920 H        1 ZINC000008551531    0.0800
61     H61    11.5623   -6.3491  -14.5612 H        1 ZINC000008551531    0.0800
62     H62    11.3986   -7.4625  -15.9402 H        1 ZINC000008551531    0.0700
63     H63    10.2752   -9.0015  -14.4611 H        1 ZINC000008551531    0.1300
64     H64     8.4557   -5.6641  -13.4593 H        1 ZINC000008551531    0.0800
65     H65     9.2007   -5.9053  -11.8608 H        1 ZINC000008551531    0.0700
66     H66    10.2215   -5.5393  -13.2724 H        1 ZINC000008551531    0.0700
67     H67     6.7183  -10.0890  -11.0671 H        1 ZINC000008551531    0.1000
68     H68     8.1678  -10.1562  -10.0363 H        1 ZINC000008551531    0.1000
69     H69     7.0062   -8.8016   -8.3145 H        1 ZINC000008551531    0.0800
70     H70     5.5567   -8.7344   -9.3454 H        1 ZINC000008551531    0.0800
71     H71     6.2590  -11.4445   -8.9729 H        1 ZINC000008551531    0.4000
72     H72     4.1741  -12.5221   -7.6482 H        1 ZINC000008551531    0.1100
73     H73     5.6236  -12.5893   -6.6174 H        1 ZINC000008551531    0.1000
74     H74     4.4620  -11.2347   -4.8956 H        1 ZINC000008551531    0.0700
75     H75     3.0125  -11.1675   -5.9265 H        1 ZINC000008551531    0.0800
76     H76     3.7147  -13.8776   -5.5540 H        1 ZINC000008551531    0.4000
77     H77     2.6577  -15.4637   -5.1853 H        1 ZINC000008551531    0.3700
78     H78     0.2097  -12.4328   -3.2753 H        1 ZINC000008551531    0.0600
79     H79    -1.1863  -13.5247   -3.1108 H        1 ZINC000008551531    0.0800
80     H80     0.1344  -13.5829   -1.9189 H        1 ZINC000008551531    0.0500
81     H81     0.8697  -14.9439   -5.9068 H        1 ZINC000008551531    0.0500
82     H82    -0.7142  -14.2402   -5.5013 H        1 ZINC000008551531    0.0800
83     H83     0.7327  -13.2049   -5.5528 H        1 ZINC000008551531    0.0400
84     H84     0.5958  -16.6176   -4.0721 H        1 ZINC000008551531    0.0600
85     H85     0.2637  -16.0709   -2.4110 H        1 ZINC000008551531    0.0500
86     H86    -7.6174  -18.2296   -5.5289 H        1 ZINC000008551531    0.0600
87     H87    -7.8223  -18.2998   -3.7622 H        1 ZINC000008551531    0.1000
88     H88    -8.5291  -16.0914   -8.5191 H        1 ZINC000008551531    0.2300
89     H89   -10.4355  -13.3075  -11.9779 H        1 ZINC000008551531    0.4200
90     H90   -11.5325  -12.0366  -12.0436 H        1 ZINC000008551531    0.4000
91     H91   -12.8432  -11.2774   -7.7423 H        1 ZINC000008551531    0.2000
92     H92   -12.3844  -14.9188   -5.6380 H        1 ZINC000008551531    0.3500
@<TRIPOS>BOND
1     1     2     1
2     1     60    1
3     1     61    1
4     1     62    1
5     2     3     2
6     2     63    1
7     3     4     1
8     3     5     1
9     4     64    1
10    4     65    1
11    4     66    1
12    5     6     2
13    5     7     1
14    7     8     1
15    8     9     1
16    8     67    1
17    8     68    1
18    9     10    1
19    9     69    1
20    9     70    1
21    10    11    am
22    10    71    1
23    11    12    2
24    11    13    1
25    13    14    1
26    13    72    1
27    13    73    1
28    14    15    1
29    14    74    1
30    14    75    1
31    15    16    am
32    15    76    1
33    16    17    2
34    16    18    1
35    18    19    1
36    18    20    1
37    18    21    1
38    20    77    1
39    21    22    1
40    21    23    1
41    21    24    1
42    22    78    1
43    22    79    1
44    22    80    1
45    23    81    1
46    23    82    1
47    23    83    1
48    24    25    1
49    24    84    1
50    24    85    1
51    25    26    1
52    26    27    ar
53    26    28    ar
54    26    29    1
55    29    30    1
56    30    31    ar
57    30    32    ar
58    30    33    1
59    33    34    1
60    34    35    1
61    34    86    1
62    34    87    1
63    35    36    1
64    35    53    1
65    35    37    1
66    37    38    1
67    38    39    1
68    38    40    1
69    38    50    1
70    40    49    1
71    40    41    1
72    41    42    2
73    41    88    1
74    42    43    1
75    43    49    ar
76    43    44    ar
77    44    45    1
78    44    46    ar
79    45    89    1
80    45    90    1
81    46    47    ar
82    47    48    ar
83    47    91    1
84    48    49    ar
85    50    51    1
86    50    52    1
87    50    53    1
88    52    92    1
89    53    54    1
90    53    55    1
91    55    56    1
92    56    57    ar
93    56    58    ar
94    56    59    ar
@<TRIPOS>SUBSTRUCTURE
1   ZINC000008551531 1     RESIDUE    1   A     ZIN   1
@<TRIPOS>MOLECULE
ZINC000008551512
92    94    1     0     0
SMALL
USER_CHARGES
@<TRIPOS>ATOM
1      C1    -14.9176  -11.1548    0.9501 C.3      1 ZINC000008551512   -0.1300
2      C2    -13.4417  -11.4203    0.8007 C.2      1 ZINC000008551512   -0.0200
3      C3    -12.9253  -12.8360    0.8178 C.3      1 ZINC000008551512   -0.1300
4      C4    -12.5950  -10.4054    0.6539 C.2      1 ZINC000008551512   -0.2400
5      C5    -13.0991   -9.0236    0.6372 C.2      1 ZINC000008551512    0.3800
6      O6    -14.2906   -8.8093    0.7579 O.2      1 ZINC000008551512   -0.4500
7      S7    -11.9772   -7.6789    0.4426 S.3      1 ZINC000008551512   -0.1500
8      C8    -13.1376   -6.2910    0.4983 C.3      1 ZINC000008551512   -0.1100
9      C9    -12.3690   -4.9771    0.3444 C.3      1 ZINC000008551512    0.1400
10     N10   -13.3082   -3.8537    0.3895 N.am     1 ZINC000008551512   -0.7300
11     C11   -12.8537   -2.5902    0.2730 C.2      1 ZINC000008551512    0.5200
12     O12   -11.6671   -2.3833    0.1308 O.2      1 ZINC000008551512   -0.5300
13     C13   -13.8198   -1.4346    0.3193 C.3      1 ZINC000008551512   -0.1500
14     C14   -13.0512   -0.1207    0.1654 C.3      1 ZINC000008551512    0.1400
15     N15   -13.9904    1.0027    0.2105 N.am     1 ZINC000008551512   -0.7400
16     C16   -13.5359    2.2662    0.0940 C.2      1 ZINC000008551512    0.5000
17     O17   -12.3430    2.4793    0.0434 O.2      1 ZINC000008551512   -0.5300
18     C18   -14.5099    3.4141    0.0267 C.3      1 ZINC000008551512    0.1000
19     H19   -14.2949    4.0220   -0.8522 H        1 ZINC000008551512    0.1400
20     O20   -15.8419    2.9041   -0.0613 O.3      1 ZINC000008551512   -0.5500
21     C21   -14.3745    4.2724    1.2860 C.3      1 ZINC000008551512   -0.0900
22     C22   -14.5421    3.3903    2.5248 C.3      1 ZINC000008551512   -0.1400
23     C23   -12.9924    4.9282    1.3101 C.3      1 ZINC000008551512   -0.1400
24     C24   -15.4537    5.3570    1.2824 C.3      1 ZINC000008551512    0.1500
25     O25   -15.3272    6.1586    2.4586 O.3      1 ZINC000008551512   -0.7700
26     P26   -16.3020    7.3979    2.7841 P.3      1 ZINC000008551512    2.3000
27     O27   -16.2904    8.3877    1.5978 O.co2    1 ZINC000008551512   -1.1100
28     O28   -17.7397    6.8777    3.0067 O.co2    1 ZINC000008551512   -1.1100
29     O29   -15.7908    8.1480    4.1139 O.3      1 ZINC000008551512   -1.0900
30     P30   -16.1075    9.5775    4.7834 P.3      1 ZINC000008551512    2.2900
31     O31   -17.6317    9.8292    4.7635 O.co2    1 ZINC000008551512   -1.1000
32     O32   -15.3914   10.6899    3.9854 O.co2    1 ZINC000008551512   -1.1100
33     O33   -15.5820    9.5856    6.3052 O.3      1 ZINC000008551512   -0.7700
34     C34   -15.8076   10.6761    7.2007 C.3      1 ZINC000008551512    0.1400
35     C35   -15.1789   10.3591    8.5590 C.3      1 ZINC000008551512    0.0700
36     H36   -15.5475    9.4040    8.9333 H        1 ZINC000008551512    0.1000
37     O37   -13.7387   10.3355    8.4532 O.3      1 ZINC000008551512   -0.3500
38     C38   -13.2550   10.5290    9.8003 C.3      1 ZINC000008551512    0.2600
39     H39   -13.3285    9.6006   10.3668 H        1 ZINC000008551512    0.1200
40     N40   -11.8698   11.0055    9.7813 N.pl3    1 ZINC000008551512   -0.4500
41     C41   -11.2579   11.6658    8.7576 C.2      1 ZINC000008551512    0.2900
42     N42   -10.0268   11.9398    9.0782 N.2      1 ZINC000008551512   -0.4800
43     C43    -9.7709   11.4741   10.3243 C.ar     1 ZINC000008551512   -0.1000
44     C44    -8.6486   11.4782   11.1697 C.ar     1 ZINC000008551512    0.5000
45     N45    -7.4597   12.0597   10.7653 N.pl3    1 ZINC000008551512   -0.8300
46     N46    -8.7556   10.9111   12.3670 N.ar     1 ZINC000008551512   -0.6000
47     C47    -9.8860   10.3544   12.7614 C.ar     1 ZINC000008551512    0.3400
48     N48   -10.9621   10.3265   12.0036 N.ar     1 ZINC000008551512   -0.5400
49     C49   -10.9522   10.8742   10.7928 C.ar     1 ZINC000008551512    0.3000
50     C50   -14.1873   11.6026   10.4040 C.3      1 ZINC000008551512    0.0600
51     H51   -13.7487   12.5944   10.2948 H        1 ZINC000008551512    0.0700
52     O52   -14.4497   11.3213   11.7803 O.3      1 ZINC000008551512   -0.5000
53     C53   -15.4846   11.4868    9.5695 C.3      1 ZINC000008551512    0.1500
54     H54   -15.6871   12.4216    9.0468 H        1 ZINC000008551512    0.0800
55     O55   -16.5880   11.1330   10.4057 O.3      1 ZINC000008551512   -0.7200
56     P56   -17.9106   12.0408   10.5431 P.3      1 ZINC000008551512    2.1200
57     O57   -17.5051   13.4940   10.9649 O.co2    1 ZINC000008551512   -1.1900
58     O58   -18.6582   12.0859    9.1670 O.co2    1 ZINC000008551512   -1.1700
59     O59   -18.8555   11.4257   11.6309 O.co2    1 ZINC000008551512   -1.1700
60     H60   -15.4478  -12.1009    1.0584 H        1 ZINC000008551512    0.0600
61     H61   -15.0884  -10.5394    1.8334 H        1 ZINC000008551512    0.0900
62     H62   -15.2839  -10.6320    0.0667 H        1 ZINC000008551512    0.0800
63     H63   -12.9137  -13.2308   -0.1982 H        1 ZINC000008551512    0.0800
64     H64   -11.9140  -12.8490    1.2242 H        1 ZINC000008551512    0.0700
65     H65   -13.5747  -13.4522    1.4396 H        1 ZINC000008551512    0.0800
66     H66   -11.5373  -10.5957    0.5468 H        1 ZINC000008551512    0.1400
67     H67   -13.8586   -6.3874   -0.3135 H        1 ZINC000008551512    0.1000
68     H68   -13.6631   -6.2948    1.4533 H        1 ZINC000008551512    0.1000
69     H69   -11.6480   -4.8807    1.1562 H        1 ZINC000008551512    0.0800
70     H70   -11.8435   -4.9732   -0.6106 H        1 ZINC000008551512    0.0800
71     H71   -14.2572   -4.0191    0.5032 H        1 ZINC000008551512    0.4000
72     H72   -14.5408   -1.5310   -0.4924 H        1 ZINC000008551512    0.1000
73     H73   -14.3453   -1.4384    1.2743 H        1 ZINC000008551512    0.1100
74     H74   -12.3302   -0.0243    0.9772 H        1 ZINC000008551512    0.0800
75     H75   -12.5257   -0.1169   -0.7895 H        1 ZINC000008551512    0.0700
76     H76   -14.9394    0.8372    0.3242 H        1 ZINC000008551512    0.4000
77     H77   -16.1023    2.3527    0.6892 H        1 ZINC000008551512    0.3700
78     H78   -13.7733    2.6176    2.5273 H        1 ZINC000008551512    0.0400
79     H79   -14.4457    4.0017    3.4220 H        1 ZINC000008551512    0.0800
80     H80   -15.5268    2.9231    2.5077 H        1 ZINC000008551512    0.0500
81     H81   -12.8283    5.4642    0.3753 H        1 ZINC000008551512    0.0500
82     H82   -12.9365    5.6274    2.1444 H        1 ZINC000008551512    0.0800
83     H83   -12.2279    4.1603    1.4276 H        1 ZINC000008551512    0.0600
84     H84   -15.3343    5.9854    0.3999 H        1 ZINC000008551512    0.0500
85     H85   -16.4383    4.8898    1.2653 H        1 ZINC000008551512    0.0600
86     H86   -15.3554   11.5804    6.7932 H        1 ZINC000008551512    0.0600
87     H87   -16.8797   10.8296    7.3235 H        1 ZINC000008551512    0.1000
88     H88   -11.7257   11.9231    7.8188 H        1 ZINC000008551512    0.2300
89     H89    -7.3942   12.4707    9.8892 H        1 ZINC000008551512    0.4200
90     H90    -6.6919   12.0562   11.3580 H        1 ZINC000008551512    0.4000
91     H91    -9.9294    9.9047   13.7424 H        1 ZINC000008551512    0.2000
92     H92   -13.6605   11.3216   12.3392 H        1 ZINC000008551512    0.3500
@<TRIPOS>BOND
1     1     2     1
2     1     60    1
3     1     61    1
4     1     62    1
5     2     3     1
6     2     4     2
7     3     63    1
8     3     64    1
9     3     65    1
10    4     5     1
11    4     66    1
12    5     6     2
13    5     7     1
14    7     8     1
15    8     9     1
16    8     67    1
17    8     68    1
18    9     10    1
19    9     69    1
20    9     70    1
21    10    11    am
22    10    71    1
23    11    12    2
24    11    13    1
25    13    14    1
26    13    72    1
27    13    73    1
28    14    15    1
29    14    74    1
30    14    75    1
31    15    16    am
32    15    76    1
33    16    17    2
34    16    18    1
35    18    19    1
36    18    20    1
37    18    21    1
38    20    77    1
39    21    22    1
40    21    23    1
41    21    24    1
42    22    78    1
43    22    79    1
44    22    80    1
45    23    81    1
46    23    82    1
47    23    83    1
48    24    25    1
49    24    84    1
50    24    85    1
51    25    26    1
52    26    27    ar
53    26    28    ar
54    26    29    1
55    29    30    1
56    30    31    ar
57    30    32    ar
58    30    33    1
59    33    34    1
60    34    35    1
61    34    86    1
62    34    87    1
63    35    36    1
64    35    53    1
65    35    37    1
66    37    38    1
67    38    39    1
68    38    40    1
69    38    50    1
70    40    49    1
71    40    41    1
72    41    42    2
73    41    88    1
74    42    43    1
75    43    49    ar
76    43    44    ar
77    44    45    1
78    44    46    ar
79    45    89    1
80    45    90    1
81    46    47    ar
82    47    48    ar
83    47    91    1
84    48    49    ar
85    50    51    1
86    50    52    1
87    50    53    1
88    52    92    1
89    53    54    1
90    53    55    1
91    55    56    1
92    56    57    ar
93    56    58    ar
94    56    59    ar
@<TRIPOS>SUBSTRUCTURE
1   ZINC000008551512 1     RESIDUE    1   A     ZIN   1
@<TRIPOS>MOLECULE
ZINC000008551586
92    94    1     0     0
SMALL
USER_CHARGES
@<TRIPOS>ATOM
1      C1    -17.8245   -5.3413   -0.4199 C.3      1 ZINC000008551586   -0.1900
2      C2    -16.8070   -6.4598   -0.6535 C.3      1 ZINC000008551586    0.1100
3      H3    -16.9721   -7.2581    0.0701 H        1 ZINC000008551586    0.1000
4      O4    -16.9627   -6.9766   -1.9766 O.3      1 ZINC000008551586   -0.5500
5      C5    -15.3912   -5.9045   -0.4862 C.3      1 ZINC000008551586   -0.1800
6      C6    -14.3943   -7.0294   -0.5947 C.2      1 ZINC000008551586    0.3300
7      O7    -14.7786   -8.1641   -0.7870 O.2      1 ZINC000008551586   -0.4300
8      S8    -12.7196   -6.7063   -0.4466 S.3      1 ZINC000008551586   -0.1300
9      C9    -12.0573   -8.3777   -0.6566 C.3      1 ZINC000008551586   -0.1200
10     C10   -10.5309   -8.3373   -0.5596 C.3      1 ZINC000008551586    0.1400
11     N11    -9.9948   -9.6901   -0.7296 N.am     1 ZINC000008551586   -0.7300
12     C12    -8.6642   -9.8986   -0.6814 C.2      1 ZINC000008551586    0.5200
13     O13    -7.9106   -8.9664   -0.4973 O.2      1 ZINC000008551586   -0.5300
14     C14    -8.1128  -11.2901   -0.8562 C.3      1 ZINC000008551586   -0.1500
15     C15    -6.5864  -11.2498   -0.7592 C.3      1 ZINC000008551586    0.1400
16     N16    -6.0503  -12.6025   -0.9292 N.am     1 ZINC000008551586   -0.7400
17     C17    -4.7196  -12.8111   -0.8810 C.2      1 ZINC000008551586    0.5000
18     O18    -3.9612  -11.8692   -0.7882 O.2      1 ZINC000008551586   -0.5300
19     C19    -4.1742  -14.2146   -0.9423 C.3      1 ZINC000008551586    0.1000
20     H20    -3.5032  -14.3808   -0.0996 H        1 ZINC000008551586    0.1400
21     O21    -5.2542  -15.1484   -0.8827 O.3      1 ZINC000008551586   -0.5500
22     C22    -3.4059  -14.4063   -2.2515 C.3      1 ZINC000008551586   -0.0900
23     C23    -4.3092  -14.0412   -3.4311 C.3      1 ZINC000008551586   -0.1400
24     C24    -2.1714  -13.5025   -2.2555 C.3      1 ZINC000008551586   -0.1400
25     C25    -2.9688  -15.8672   -2.3770 C.3      1 ZINC000008551586    0.1500
26     O26    -2.2512  -16.0463   -3.5997 O.3      1 ZINC000008551586   -0.7700
27     P27    -1.6414  -17.4638   -4.0590 P.3      1 ZINC000008551586    2.3000
28     O28    -0.7202  -18.0128   -2.9468 O.co2    1 ZINC000008551586   -1.1100
29     O29    -2.7931  -18.4618   -4.3131 O.co2    1 ZINC000008551586   -1.1100
30     O30    -0.7915  -17.2692   -5.4125 O.3      1 ZINC000008551586   -1.0900
31     P31     0.2857  -18.1732   -6.1963 P.3      1 ZINC000008551586    2.2900
32     O32    -0.2201  -19.6312   -6.2678 O.co2    1 ZINC000008551586   -1.1000
33     O33     1.6356  -18.1325   -5.4458 O.co2    1 ZINC000008551586   -1.1100
34     O34     0.4835  -17.6000   -7.6878 O.3      1 ZINC000008551586   -0.7700
35     C35     1.2977  -18.2462   -8.6683 C.3      1 ZINC000008551586    0.1400
36     C36     1.2658  -17.4409   -9.9688 C.3      1 ZINC000008551586    0.0700
37     H37     0.2367  -17.2834  -10.2917 H        1 ZINC000008551586    0.1000
38     O38     1.9368  -16.1742   -9.7924 O.3      1 ZINC000008551586   -0.3500
39     C39     2.2842  -15.7388  -11.1249 C.3      1 ZINC000008551586    0.2600
40     H40     1.4119  -15.3203  -11.6269 H        1 ZINC000008551586    0.1200
41     N41     3.3645  -14.7505  -11.0731 N.pl3    1 ZINC000008551586   -0.4500
42     C42     4.2766  -14.6044  -10.0707 C.2      1 ZINC000008551586    0.2900
43     N43     5.0922  -13.6296  -10.3502 N.2      1 ZINC000008551586   -0.4800
44     C44     4.7562  -13.0895  -11.5463 C.ar     1 ZINC000008551586   -0.1000
45     C45     5.2622  -12.0424  -12.3348 C.ar     1 ZINC000008551586    0.5000
46     N46     6.3561  -11.3054  -11.9160 N.pl3    1 ZINC000008551586   -0.8300
47     N47     4.6660  -11.7763  -13.4925 N.ar     1 ZINC000008551586   -0.6000
48     C48     3.6220  -12.4745  -13.9004 C.ar     1 ZINC000008551586    0.3400
49     N49     3.1139  -13.4632  -13.1952 N.ar     1 ZINC000008551586   -0.5400
50     C50     3.6472  -13.8062  -12.0273 C.ar     1 ZINC000008551586    0.3000
51     C51     2.7578  -17.0193  -11.8476 C.3      1 ZINC000008551586    0.0600
52     H52     3.8422  -17.1126  -11.7882 H        1 ZINC000008551586    0.0700
53     O53     2.3313  -17.0114  -13.2115 O.3      1 ZINC000008551586   -0.5000
54     C54     2.0700  -18.1663  -11.0704 C.3      1 ZINC000008551586    0.1500
55     H55     2.8145  -18.8266  -10.6258 H        1 ZINC000008551586    0.0800
56     O56     1.1996  -18.9031  -11.9316 O.3      1 ZINC000008551586   -0.7200
57     P57     1.3598  -20.4831  -12.1966 P.3      1 ZINC000008551586    2.1200
58     O58     2.8124  -20.7835  -12.7007 O.co2    1 ZINC000008551586   -1.1900
59     O59     1.0969  -21.2653  -10.8649 O.co2    1 ZINC000008551586   -1.1700
60     O60     0.3258  -20.9379  -13.2823 O.co2    1 ZINC000008551586   -1.1700
61     H61   -18.8331   -5.7369   -0.5390 H        1 ZINC000008551586    0.0700
62     H62   -17.7057   -4.9471    0.5894 H        1 ZINC000008551586    0.0700
63     H63   -17.6595   -4.5430   -1.1435 H        1 ZINC000008551586    0.0600
64     H64   -16.8297   -6.3197   -2.6737 H        1 ZINC000008551586    0.3700
65     H65   -15.1950   -5.1687   -1.2661 H        1 ZINC000008551586    0.1100
66     H66   -15.2998   -5.4310    0.4913 H        1 ZINC000008551586    0.1100
67     H67   -12.4540   -9.0265    0.1243 H        1 ZINC000008551586    0.1000
68     H68   -12.3492   -8.7641   -1.6331 H        1 ZINC000008551586    0.1000
69     H69   -10.1342   -7.6885   -1.3405 H        1 ZINC000008551586    0.0800
70     H70   -10.2390   -7.9508    0.4169 H        1 ZINC000008551586    0.0800
71     H71   -10.5976  -10.4357   -0.8768 H        1 ZINC000008551586    0.4000
72     H72    -8.5094  -11.9389   -0.0753 H        1 ZINC000008551586    0.1000
73     H73    -8.4047  -11.6766   -1.8327 H        1 ZINC000008551586    0.1100
74     H74    -6.1897  -10.6010   -1.5401 H        1 ZINC000008551586    0.0800
75     H75    -6.2945  -10.8633    0.2173 H        1 ZINC000008551586    0.0700
76     H76    -6.6530  -13.3481   -1.0764 H        1 ZINC000008551586    0.4000
77     H77    -5.8922  -15.0584   -1.6037 H        1 ZINC000008551586    0.3700
78     H78    -4.6206  -13.0004   -3.3417 H        1 ZINC000008551586    0.0400
79     H79    -3.7619  -14.1778   -4.3638 H        1 ZINC000008551586    0.0800
80     H80    -5.1887  -14.6851   -3.4283 H        1 ZINC000008551586    0.0500
81     H81    -1.5856  -13.6836   -1.3543 H        1 ZINC000008551586    0.0500
82     H82    -1.5640  -13.7210   -3.1337 H        1 ZINC000008551586    0.0800
83     H83    -2.4853  -12.4589   -2.2812 H        1 ZINC000008551586    0.0600
84     H84    -2.3252  -16.1274   -1.5366 H        1 ZINC000008551586    0.0500
85     H85    -3.8482  -16.5111   -2.3741 H        1 ZINC000008551586    0.0600
86     H86     2.3234  -18.3088   -8.3048 H        1 ZINC000008551586    0.0600
87     H87     0.9159  -19.2502   -8.8533 H        1 ZINC000008551586    0.1000
88     H88     4.3163  -15.2083   -9.1761 H        1 ZINC000008551586    0.2300
89     H89     6.7828  -11.5094  -11.0691 H        1 ZINC000008551586    0.4200
90     H90     6.6961  -10.5849  -12.4692 H        1 ZINC000008551586    0.4000
91     H91     3.1678  -12.2248  -14.8479 H        1 ZINC000008551586    0.2000
92     H92     2.6862  -16.2765  -13.7303 H        1 ZINC000008551586    0.3500
@<TRIPOS>BOND
1     1     2     1
2     1     61    1
3     1     62    1
4     1     63    1
5     2     3     1
6     2     4     1
7     2     5     1
8     4     64    1
9     5     6     1
10    5     65    1
11    5     66    1
12    6     7     2
13    6     8     1
14    8     9     1
15    9     10    1
16    9     67    1
17    9     68    1
18    10    11    1
19    10    69    1
20    10    70    1
21    11    12    am
22    11    71    1
23    12    13    2
24    12    14    1
25    14    15    1
26    14    72    1
27    14    73    1
28    15    16    1
29    15    74    1
30    15    75    1
31    16    17    am
32    16    76    1
33    17    18    2
34    17    19    1
35    19    20    1
36    19    21    1
37    19    22    1
38    21    77    1
39    22    23    1
40    22    24    1
41    22    25    1
42    23    78    1
43    23    79    1
44    23    80    1
45    24    81    1
46    24    82    1
47    24    83    1
48    25    26    1
49    25    84    1
50    25    85    1
51    26    27    1
52    27    28    ar
53    27    29    ar
54    27    30    1
55    30    31    1
56    31    32    ar
57    31    33    ar
58    31    34    1
59    34    35    1
60    35    36    1
61    35    86    1
62    35    87    1
63    36    37    1
64    36    54    1
65    36    38    1
66    38    39    1
67    39    40    1
68    39    41    1
69    39    51    1
70    41    50    1
71    41    42    1
72    42    43    2
73    42    88    1
74    43    44    1
75    44    50    ar
76    44    45    ar
77    45    46    1
78    45    47    ar
79    46    89    1
80    46    90    1
81    47    48    ar
82    48    49    ar
83    48    91    1
84    49    50    ar
85    51    52    1
86    51    53    1
87    51    54    1
88    53    92    1
89    54    55    1
90    54    56    1
91    56    57    1
92    57    58    ar
93    57    59    ar
94    57    60    ar
@<TRIPOS>SUBSTRUCTURE
1   ZINC000008551586 1     RESIDUE    1   A     ZIN   1
@<TRIPOS>MOLECULE
ZINC000008551264
94    96    1     0     0
SMALL
USER_CHARGES
@<TRIPOS>ATOM
1      C1     -0.0864  -20.5959    0.8537 C.3      1 ZINC000008551264   -0.1500
2      C2     -0.0609  -19.0752    0.6872 C.3      1 ZINC000008551264   -0.1200
3      C3     -1.4940  -18.5395    0.6738 C.3      1 ZINC000008551264   -0.1100
4      C4     -1.4685  -17.0188    0.5074 C.3      1 ZINC000008551264   -0.1500
5      C5     -2.8800  -16.4912    0.4941 C.2      1 ZINC000008551264    0.3300
6      O6     -3.8148  -17.2564    0.6067 O.2      1 ZINC000008551264   -0.4500
7      S7     -3.1646  -14.8120    0.3202 S.3      1 ZINC000008551264   -0.1200
8      C8     -4.9737  -14.7925    0.3747 C.3      1 ZINC000008551264   -0.1200
9      C9     -5.4727  -13.3530    0.2336 C.3      1 ZINC000008551264    0.1400
10     N10    -6.9369  -13.3373    0.2777 N.am     1 ZINC000008551264   -0.7300
11     C11    -7.6018  -12.1697    0.1714 C.2      1 ZINC000008551264    0.5200
12     O12    -6.9878  -11.1322    0.0392 O.2      1 ZINC000008551264   -0.5300
13     C13    -9.1080  -12.1535    0.2168 C.3      1 ZINC000008551264   -0.1500
14     C14    -9.6070  -10.7140    0.0757 C.3      1 ZINC000008551264    0.1400
15     N15   -11.0712  -10.6982    0.1198 N.am     1 ZINC000008551264   -0.7400
16     C16   -11.7361   -9.5307    0.0135 C.2      1 ZINC000008551264    0.5000
17     O17   -11.1228   -8.4852   -0.0271 O.2      1 ZINC000008551264   -0.5300
18     C18   -13.2415   -9.5244   -0.0549 C.3      1 ZINC000008551264    0.1000
19     H19   -13.5631   -8.9579   -0.9289 H        1 ZINC000008551264    0.1400
20     O20   -13.7194  -10.8673   -0.1555 O.3      1 ZINC000008551264   -0.5500
21     C21   -13.8068   -8.8752    1.2100 C.3      1 ZINC000008551264   -0.0900
22     C22   -13.2461   -9.5872    2.4427 C.3      1 ZINC000008551264   -0.1400
23     C23   -13.4071   -7.3989    1.2478 C.3      1 ZINC000008551264   -0.1400
24     C24   -15.3324   -8.9906    1.2042 C.3      1 ZINC000008551264    0.1500
25     O25   -15.8604   -8.3843    2.3856 O.3      1 ZINC000008551264   -0.7700
26     P26   -17.4361   -8.3228    2.7105 P.3      1 ZINC000008551264    2.3000
27     O27   -18.1799   -7.6599    1.5297 O.co2    1 ZINC000008551264   -1.1100
28     O28   -17.9751   -9.7555    2.9197 O.co2    1 ZINC000008551264   -1.1100
29     O29   -17.6749   -7.4589    4.0480 O.3      1 ZINC000008551264   -1.0900
30     P30   -18.9677   -6.7768    4.7229 P.3      1 ZINC000008551264    2.2900
31     O31   -20.1495   -7.7715    4.6930 O.co2    1 ZINC000008551264   -1.1000
32     O32   -19.3472   -5.5023    3.9362 O.co2    1 ZINC000008551264   -1.1100
33     O33   -18.6335   -6.3861    6.2486 O.3      1 ZINC000008551264   -0.7700
34     C34   -19.6096   -5.8570    7.1482 C.3      1 ZINC000008551264    0.1400
35     C35   -18.9610   -5.5977    8.5094 C.3      1 ZINC000008551264    0.0700
36     H36   -18.4750   -6.5019    8.8758 H        1 ZINC000008551264    0.1000
37     O37   -18.0072   -4.5174    8.4142 O.3      1 ZINC000008551264   -0.3500
38     C38   -17.8409   -4.0364    9.7658 C.3      1 ZINC000008551264    0.2600
39     H39   -17.1834   -4.7007   10.3268 H        1 ZINC000008551264    0.1200
40     N40   -17.3028   -2.6738    9.7597 N.pl3    1 ZINC000008551264   -0.4500
41     C41   -17.4063   -1.7703    8.7442 C.2      1 ZINC000008551264    0.2900
42     N42   -16.8147   -0.6595    9.0753 N.2      1 ZINC000008551264   -0.4800
43     C43   -16.2954   -0.7791   10.3208 C.ar     1 ZINC000008551264   -0.1000
44     C44   -15.5698    0.0689   11.1745 C.ar     1 ZINC000008551264    0.5000
45     N45   -15.2388    1.3540   10.7821 N.pl3    1 ZINC000008551264   -0.8300
46     N46   -15.2092   -0.3919   12.3679 N.ar     1 ZINC000008551264   -0.6000
47     C47   -15.5210   -1.6165   12.7509 C.ar     1 ZINC000008551264    0.3400
48     N48   -16.1985   -2.4455   11.9850 N.ar     1 ZINC000008551264   -0.5400
49     C49   -16.6075   -2.0710   10.7773 C.ar     1 ZINC000008551264    0.3000
50     C50   -19.2632   -4.0528   10.3684 C.3      1 ZINC000008551264    0.0600
51     H51   -19.7319   -3.0739   10.2678 H        1 ZINC000008551264    0.0700
52     O52   -19.2209   -4.4476   11.7412 O.3      1 ZINC000008551264   -0.5000
53     C53   -20.0176   -5.1064    9.5237 C.3      1 ZINC000008551264    0.1500
54     H54   -20.8593   -4.6481    9.0045 H        1 ZINC000008551264    0.0800
55     O55   -20.4664   -6.1826   10.3498 O.3      1 ZINC000008551264   -0.7200
56     P56   -22.0159   -6.5991   10.4822 P.3      1 ZINC000008551264    2.1200
57     O57   -22.8573   -5.3503   10.9148 O.co2    1 ZINC000008551264   -1.1900
58     O58   -22.5351   -7.1254    9.1009 O.co2    1 ZINC000008551264   -1.1700
59     O59   -22.1633   -7.7269   11.5596 O.co2    1 ZINC000008551264   -1.1700
60     H60     0.9345  -20.9776    0.8632 H        1 ZINC000008551264    0.0500
61     H61    -0.5783  -20.8505    1.7925 H        1 ZINC000008551264    0.0600
62     H62    -0.6337  -21.0431    0.0238 H        1 ZINC000008551264    0.0500
63     H63     0.4864  -18.6280    1.5171 H        1 ZINC000008551264    0.0600
64     H64     0.4310  -18.8207   -0.2516 H        1 ZINC000008551264    0.0600
65     H65    -2.0413  -18.9867   -0.1560 H        1 ZINC000008551264    0.0700
66     H66    -1.9859  -18.7941    1.6126 H        1 ZINC000008551264    0.0700
67     H67    -0.9212  -16.5717    1.3372 H        1 ZINC000008551264    0.1100
68     H68    -0.9766  -16.7643   -0.4314 H        1 ZINC000008551264    0.1100
69     H69    -5.3684  -15.3957   -0.4429 H        1 ZINC000008551264    0.1000
70     H70    -5.3130  -15.2030    1.3257 H        1 ZINC000008551264    0.1000
71     H71    -5.0780  -12.7499    1.0512 H        1 ZINC000008551264    0.0800
72     H72    -5.1334  -12.9425   -0.7174 H        1 ZINC000008551264    0.0800
73     H73    -7.4279  -14.1671    0.3835 H        1 ZINC000008551264    0.4000
74     H74    -9.5027  -12.7566   -0.6008 H        1 ZINC000008551264    0.1000
75     H75    -9.4473  -12.5640    1.1678 H        1 ZINC000008551264    0.1100
76     H76    -9.2123  -10.1109    0.8933 H        1 ZINC000008551264    0.0800
77     H77    -9.2677  -10.3035   -0.8754 H        1 ZINC000008551264    0.0700
78     H78   -11.5622  -11.5281    0.2255 H        1 ZINC000008551264    0.4000
79     H79   -13.4700  -11.4304    0.5900 H        1 ZINC000008551264    0.3700
80     H80   -12.1593   -9.5050    2.4468 H        1 ZINC000008551264    0.0400
81     H81   -13.6489   -9.1247    3.3439 H        1 ZINC000008551264    0.0800
82     H82   -13.5309  -10.6390    2.4158 H        1 ZINC000008551264    0.0500
83     H83   -13.7071   -6.9172    0.3172 H        1 ZINC000008551264    0.0500
84     H84   -13.9027   -6.9096    2.0863 H        1 ZINC000008551264    0.0800
85     H85   -12.3266   -7.3179    1.3669 H        1 ZINC000008551264    0.0600
86     H86   -15.7318   -8.4834    0.3260 H        1 ZINC000008551264    0.0500
87     H87   -15.6172  -10.0424    1.1773 H        1 ZINC000008551264    0.0600
88     H88   -20.0027   -4.9221    6.7490 H        1 ZINC000008551264    0.0600
89     H89   -20.4231   -6.5733    7.2639 H        1 ZINC000008551264    0.1000
90     H90   -17.9052   -1.9501    7.8033 H        1 ZINC000008551264    0.2300
91     H91   -15.5081    1.6789    9.9087 H        1 ZINC000008551264    0.4200
92     H92   -14.7376    1.9299   11.3804 H        1 ZINC000008551264    0.4000
93     H93   -15.2081   -1.9506   13.7291 H        1 ZINC000008551264    0.2000
94     H94   -18.7087   -3.8527   12.3059 H        1 ZINC000008551264    0.3500
@<TRIPOS>BOND
1     1     2     1
2     1     60    1
3     1     61    1
4     1     62    1
5     2     3     1
6     2     63    1
7     2     64    1
8     3     4     1
9     3     65    1
10    3     66    1
11    4     5     1
12    4     67    1
13    4     68    1
14    5     6     2
15    5     7     1
16    7     8     1
17    8     9     1
18    8     69    1
19    8     70    1
20    9     10    1
21    9     71    1
22    9     72    1
23    10    11    am
24    10    73    1
25    11    12    2
26    11    13    1
27    13    14    1
28    13    74    1
29    13    75    1
30    14    15    1
31    14    76    1
32    14    77    1
33    15    16    am
34    15    78    1
35    16    17    2
36    16    18    1
37    18    19    1
38    18    20    1
39    18    21    1
40    20    79    1
41    21    22    1
42    21    23    1
43    21    24    1
44    22    80    1
45    22    81    1
46    22    82    1
47    23    83    1
48    23    84    1
49    23    85    1
50    24    25    1
51    24    86    1
52    24    87    1
53    25    26    1
54    26    27    ar
55    26    28    ar
56    26    29    1
57    29    30    1
58    30    31    ar
59    30    32    ar
60    30    33    1
61    33    34    1
62    34    35    1
63    34    88    1
64    34    89    1
65    35    36    1
66    35    53    1
67    35    37    1
68    37    38    1
69    38    39    1
70    38    40    1
71    38    50    1
72    40    49    1
73    40    41    1
74    41    42    2
75    41    90    1
76    42    43    1
77    43    49    ar
78    43    44    ar
79    44    45    1
80    44    46    ar
81    45    91    1
82    45    92    1
83    46    47    ar
84    47    48    ar
85    47    93    1
86    48    49    ar
87    50    51    1
88    50    52    1
89    50    53    1
90    52    94    1
91    53    54    1
92    53    55    1
93    55    56    1
94    56    57    ar
95    56    58    ar
96    56    59    ar
@<TRIPOS>SUBSTRUCTURE
1   ZINC000008551264 1     RESIDUE    1   A     ZIN   1
@<TRIPOS>MOLECULE
ZINC000008551119
88    90    1     0     0
SMALL
USER_CHARGES
@<TRIPOS>ATOM
1      C1     -0.2802  -16.4751   -0.7325 C.3      1 ZINC000008551119   -0.1400
2      C2     -0.1726  -14.9550   -0.5968 C.3      1 ZINC000008551119   -0.1500
3      C3      0.5361  -14.3920   -1.8018 C.2      1 ZINC000008551119    0.3300
4      O4      0.9176  -15.1339   -2.6827 O.2      1 ZINC000008551119   -0.4500
5      S5      0.8028  -12.7056   -1.9277 S.3      1 ZINC000008551119   -0.1200
6      C6      1.6593  -12.6409   -3.5209 C.3      1 ZINC000008551119   -0.1200
7      C7      2.0084  -11.1889   -3.8536 C.3      1 ZINC000008551119    0.1400
8      N8      2.7017  -11.1365   -5.1431 N.am     1 ZINC000008551119   -0.7300
9      C9      3.1078   -9.9523   -5.6422 C.2      1 ZINC000008551119    0.5200
10     O10     2.8994   -8.9300   -5.0238 O.2      1 ZINC000008551119   -0.5300
11     C11     3.8210   -9.8984   -6.9687 C.3      1 ZINC000008551119   -0.1500
12     C12     4.1701   -8.4464   -7.3014 C.3      1 ZINC000008551119    0.1400
13     N13     4.8634   -8.3940   -8.5910 N.am     1 ZINC000008551119   -0.7400
14     C14     5.2695   -7.2098   -9.0901 C.2      1 ZINC000008551119    0.5000
15     O15     4.9819   -6.1798   -8.5179 O.2      1 ZINC000008551119   -0.5300
16     C16     6.0809   -7.1654  -10.3592 C.3      1 ZINC000008551119    0.1000
17     H17     6.9897   -6.5880  -10.1894 H        1 ZINC000008551119    0.1400
18     O18     6.4278   -8.4956  -10.7495 O.3      1 ZINC000008551119   -0.5500
19     C19     5.2579   -6.5067  -11.4680 C.3      1 ZINC000008551119   -0.0900
20     C20     3.9211   -7.2368  -11.6132 C.3      1 ZINC000008551119   -0.1400
21     C21     5.0023   -5.0410  -11.1114 C.3      1 ZINC000008551119   -0.1400
22     C22     6.0270   -6.5837  -12.7884 C.3      1 ZINC000008551119    0.1500
23     O23     5.2583   -5.9685  -13.8241 O.3      1 ZINC000008551119   -0.7700
24     P24     5.7633   -5.8686  -15.3495 P.3      1 ZINC000008551119    2.3000
25     O25     7.1474   -5.1831  -15.3899 O.co2    1 ZINC000008551119   -1.1100
26     O26     5.8739   -7.2880  -15.9494 O.co2    1 ZINC000008551119   -1.1100
27     O27     4.7109   -5.0037  -16.2077 O.3      1 ZINC000008551119   -1.0900
28     P28     4.7619   -4.2917  -17.6508 P.3      1 ZINC000008551119    2.2900
29     O29     5.3938   -5.2563  -18.6790 O.co2    1 ZINC000008551119   -1.1000
30     O30     5.6130   -3.0054  -17.5606 O.co2    1 ZINC000008551119   -1.1100
31     O31     3.2675   -3.9148  -18.1164 O.3      1 ZINC000008551119   -0.7700
32     C32     2.9679   -3.3646  -19.4008 C.3      1 ZINC000008551119    0.1400
33     C33     1.4608   -3.1263  -19.5146 C.3      1 ZINC000008551119    0.0700
34     H34     0.9147   -4.0438  -19.2950 H        1 ZINC000008551119    0.1000
35     O35     1.0498   -2.0701  -18.6195 O.3      1 ZINC000008551119   -0.3500
36     C36    -0.2114   -1.5981  -19.1416 C.3      1 ZINC000008551119    0.2600
37     H37    -1.0154   -2.2806  -18.8661 H        1 ZINC000008551119    0.1200
38     N38    -0.4961   -0.2495  -18.6455 N.pl3    1 ZINC000008551119   -0.4500
39     C39     0.4210    0.6599  -18.2093 C.2      1 ZINC000008551119    0.2900
40     N40    -0.1787    1.7544  -17.8404 N.2      1 ZINC000008551119   -0.4800
41     C41    -1.5150    1.6174  -18.0159 C.ar     1 ZINC000008551119   -0.1000
42     C42    -2.6302    2.4439  -17.7975 C.ar     1 ZINC000008551119    0.5000
43     N43    -2.4757    3.7217  -17.2891 N.pl3    1 ZINC000008551119   -0.8300
44     N44    -3.8368    1.9701  -18.0911 N.ar     1 ZINC000008551119   -0.6000
45     C45    -3.9936    0.7524  -18.5771 C.ar     1 ZINC000008551119    0.3400
46     N46    -2.9787   -0.0567  -18.7974 N.ar     1 ZINC000008551119   -0.5400
47     C47    -1.7343    0.3322  -18.5401 C.ar     1 ZINC000008551119    0.3000
48     C48    -0.0222   -1.5809  -20.6747 C.3      1 ZINC000008551119    0.0600
49     H49     0.2839   -0.5902  -21.0107 H        1 ZINC000008551119    0.0700
50     O50    -1.2261   -1.9814  -21.3323 O.3      1 ZINC000008551119   -0.5000
51     C51     1.1028   -2.6122  -20.9266 C.3      1 ZINC000008551119    0.1500
52     H52     1.9659   -2.1311  -21.3867 H        1 ZINC000008551119    0.0800
53     O53     0.6284   -3.6797  -21.7497 O.3      1 ZINC000008551119   -0.7200
54     P54     1.2946   -4.0577  -23.1659 P.3      1 ZINC000008551119    2.1200
55     O55     1.3208   -2.7897  -24.0857 O.co2    1 ZINC000008551119   -1.1900
56     O56     2.7584   -4.5660  -22.9353 O.co2    1 ZINC000008551119   -1.1700
57     O57     0.4527   -5.1851  -23.8547 O.co2    1 ZINC000008551119   -1.1700
58     H58    -0.8435  -16.7205   -1.6328 H        1 ZINC000008551119    0.0600
59     H59     0.7189  -16.9055   -0.8004 H        1 ZINC000008551119    0.0600
60     H60    -0.7928  -16.8823    0.1390 H        1 ZINC000008551119    0.0700
61     H61    -1.1717  -14.5246   -0.5289 H        1 ZINC000008551119    0.1100
62     H62     0.3907  -14.7095    0.3035 H        1 ZINC000008551119    0.1000
63     H63     2.5740  -13.2311   -3.4659 H        1 ZINC000008551119    0.1000
64     H64     1.0116  -13.0461   -4.2983 H        1 ZINC000008551119    0.1000
65     H65     1.0937  -10.5987   -3.9086 H        1 ZINC000008551119    0.0800
66     H66     2.6561  -10.7836   -3.0761 H        1 ZINC000008551119    0.0800
67     H67     2.8684  -11.9541   -5.6377 H        1 ZINC000008551119    0.4000
68     H68     4.7357  -10.4886   -6.9137 H        1 ZINC000008551119    0.1000
69     H69     3.1733  -10.3036   -7.7461 H        1 ZINC000008551119    0.1100
70     H70     3.2554   -7.8562   -7.3564 H        1 ZINC000008551119    0.0800
71     H71     4.8178   -8.0411   -6.5240 H        1 ZINC000008551119    0.0700
72     H72     5.0301   -9.2116   -9.0855 H        1 ZINC000008551119    0.4000
73     H73     5.6663   -9.0674  -10.9176 H        1 ZINC000008551119    0.3700
74     H74     3.3732   -7.1820  -10.6725 H        1 ZINC000008551119    0.0400
75     H75     3.3348   -6.7675  -12.4032 H        1 ZINC000008551119    0.0800
76     H76     4.1032   -8.2810  -11.8673 H        1 ZINC000008551119    0.0500
77     H77     5.9507   -4.5487  -10.8962 H        1 ZINC000008551119    0.0500
78     H78     4.5162   -4.5424  -11.9500 H        1 ZINC000008551119    0.0800
79     H79     4.3580   -4.9876  -10.2338 H        1 ZINC000008551119    0.0600
80     H80     6.9793   -6.0636  -12.6850 H        1 ZINC000008551119    0.0500
81     H81     6.2091   -7.6279  -13.0425 H        1 ZINC000008551119    0.0600
82     H82     3.4955   -2.4187  -19.5228 H        1 ZINC000008551119    0.0600
83     H83     3.2854   -4.0606  -20.1772 H        1 ZINC000008551119    0.1000
84     H84     1.4879    0.4960  -18.1744 H        1 ZINC000008551119    0.2300
85     H85    -1.5898    4.0563  -17.0790 H        1 ZINC000008551119    0.4200
86     H86    -3.2534    4.2827  -17.1427 H        1 ZINC000008551119    0.4000
87     H87    -4.9919    0.4071  -18.8019 H        1 ZINC000008551119    0.2000
88     H88    -1.9803   -1.4016  -21.1593 H        1 ZINC000008551119    0.3500
@<TRIPOS>BOND
1     1     2     1
2     1     58    1
3     1     59    1
4     1     60    1
5     2     3     1
6     2     61    1
7     2     62    1
8     3     4     2
9     3     5     1
10    5     6     1
11    6     7     1
12    6     63    1
13    6     64    1
14    7     8     1
15    7     65    1
16    7     66    1
17    8     9     am
18    8     67    1
19    9     10    2
20    9     11    1
21    11    12    1
22    11    68    1
23    11    69    1
24    12    13    1
25    12    70    1
26    12    71    1
27    13    14    am
28    13    72    1
29    14    15    2
30    14    16    1
31    16    17    1
32    16    18    1
33    16    19    1
34    18    73    1
35    19    20    1
36    19    21    1
37    19    22    1
38    20    74    1
39    20    75    1
40    20    76    1
41    21    77    1
42    21    78    1
43    21    79    1
44    22    23    1
45    22    80    1
46    22    81    1
47    23    24    1
48    24    25    ar
49    24    26    ar
50    24    27    1
51    27    28    1
52    28    29    ar
53    28    30    ar
54    28    31    1
55    31    32    1
56    32    33    1
57    32    82    1
58    32    83    1
59    33    34    1
60    33    51    1
61    33    35    1
62    35    36    1
63    36    37    1
64    36    38    1
65    36    48    1
66    38    47    1
67    38    39    1
68    39    40    2
69    39    84    1
70    40    41    1
71    41    47    ar
72    41    42    ar
73    42    43    1
74    42    44    ar
75    43    85    1
76    43    86    1
77    44    45    ar
78    45    46    ar
79    45    87    1
80    46    47    ar
81    48    49    1
82    48    50    1
83    48    51    1
84    50    88    1
85    51    52    1
86    51    53    1
87    53    54    1
88    54    55    ar
89    54    56    ar
90    54    57    ar
@<TRIPOS>SUBSTRUCTURE
1   ZINC000008551119 1     RESIDUE    1   A     ZIN   1
@<TRIPOS>MOLECULE
ZINC000008551184
92    95    1     0     0
SMALL
USER_CHARGES
@<TRIPOS>ATOM
1      C1     -0.0985    1.3509    0.2822 C.3      1 ZINC000008551184   -0.1500
2      C2     -0.1133   -0.1556    0.0155 C.3      1 ZINC000008551184   -0.1000
3      C3      0.5901   -0.8836    1.1627 C.3      1 ZINC000008551184   -0.1300
4      C4     -1.5606   -0.6414   -0.0855 C.3      1 ZINC000008551184    0.1400
5      O5     -2.2415   -0.3681    1.1407 O.3      1 ZINC000008551184   -0.7600
6      P6     -3.7866   -0.7464    1.3890 P.3      1 ZINC000008551184    2.2900
7      O7     -4.6557   -0.1184    0.2767 O.co2    1 ZINC000008551184   -1.1000
8      O8     -3.9509   -2.2825    1.3654 O.co2    1 ZINC000008551184   -1.1100
9      O9     -4.2548   -0.1785    2.8209 O.3      1 ZINC000008551184   -1.0900
10     P10    -5.6875    0.0547    3.5174 P.3      1 ZINC000008551184    2.2900
11     O11    -6.6844    0.6047    2.4731 O.co2    1 ZINC000008551184   -1.1000
12     O12    -6.2135   -1.2867    4.0750 O.co2    1 ZINC000008551184   -1.1000
13     O13    -5.5331    1.1127    4.7211 O.3      1 ZINC000008551184   -0.7700
14     C14    -6.6453    1.6085    5.4689 C.3      1 ZINC000008551184    0.1400
15     C15    -6.1483    2.5907    6.5316 C.3      1 ZINC000008551184    0.0700
16     H16    -5.3807    2.1241    7.1491 H        1 ZINC000008551184    0.1000
17     O17    -5.6334    3.7875    5.9084 O.3      1 ZINC000008551184   -0.3500
18     C18    -5.6655    4.7977    6.9401 C.3      1 ZINC000008551184    0.2600
19     H19    -4.8245    4.6707    7.6218 H        1 ZINC000008551184    0.1200
20     N20    -5.6403    6.1359    6.3445 N.pl3    1 ZINC000008551184   -0.4500
21     C21    -6.0404    6.4653    5.0836 C.2      1 ZINC000008551184    0.2900
22     N22    -5.8814    7.7417    4.8859 N.2      1 ZINC000008551184   -0.4800
23     C23    -5.3706    8.3110    6.0040 C.ar     1 ZINC000008551184   -0.1000
24     C24    -5.0011    9.6170    6.3675 C.ar     1 ZINC000008551184    0.5000
25     N25    -5.1372   10.6657    5.4748 N.pl3    1 ZINC000008551184   -0.8300
26     N26    -4.5183    9.8219    7.5887 N.ar     1 ZINC000008551184   -0.6000
27     C27    -4.3854    8.8274    8.4472 C.ar     1 ZINC000008551184    0.3400
28     N28    -4.7178    7.5886    8.1506 N.ar     1 ZINC000008551184   -0.5400
29     C29    -5.2153    7.2885    6.9554 C.ar     1 ZINC000008551184    0.2900
30     C30    -6.9997    4.5617    7.6821 C.3      1 ZINC000008551184    0.0600
31     H31    -7.7809    5.2049    7.2771 H        1 ZINC000008551184    0.0700
32     O32    -6.8406    4.7912    9.0836 O.3      1 ZINC000008551184   -0.5000
33     C33    -7.3241    3.0741    7.4091 C.3      1 ZINC000008551184    0.1500
34     H34    -8.2659    2.9817    6.8681 H        1 ZINC000008551184    0.0800
35     O35    -7.3778    2.3403    8.6341 O.3      1 ZINC000008551184   -0.7200
36     P36    -8.6839    1.5312    9.1151 P.3      1 ZINC000008551184    2.1200
37     O37    -9.9162    2.4982    9.1433 O.co2    1 ZINC000008551184   -1.1900
38     O38    -8.9658    0.3550    8.1193 O.co2    1 ZINC000008551184   -1.1700
39     O39    -8.4408    0.9530   10.5508 O.co2    1 ZINC000008551184   -1.1700
40     C40     0.6157   -0.4483   -1.2974 C.3      1 ZINC000008551184    0.1100
41     H41     1.6142   -0.0124   -1.2635 H        1 ZINC000008551184    0.1200
42     O42     0.7190   -1.8618   -1.4801 O.3      1 ZINC000008551184   -0.5400
43     C43    -0.1555    0.1515   -2.4448 C.2      1 ZINC000008551184    0.4900
44     O44    -0.7013   -0.5707   -3.2519 O.2      1 ZINC000008551184   -0.5200
45     N45    -0.2388    1.4905   -2.5740 N.am     1 ZINC000008551184   -0.7300
46     C46    -1.0675    2.0742   -3.6317 C.3      1 ZINC000008551184    0.1300
47     C47    -0.9878    3.6004   -3.5583 C.3      1 ZINC000008551184   -0.1500
48     C48    -1.8403    4.2008   -4.6463 C.2      1 ZINC000008551184    0.5200
49     O49    -2.4515    3.4791   -5.4056 O.2      1 ZINC000008551184   -0.5200
50     N50    -1.9236    5.5398   -4.7755 N.am     1 ZINC000008551184   -0.7300
51     C51    -2.7523    6.1235   -5.8332 C.3      1 ZINC000008551184    0.1400
52     C52    -2.6726    7.6497   -5.7598 C.3      1 ZINC000008551184   -0.1200
53     S53    -3.6965    8.3708   -7.0665 S.3      1 ZINC000008551184   -0.1400
54     C54    -3.4266   10.0842   -6.7562 C.2      1 ZINC000008551184    0.3900
55     O55    -2.7002   10.4299   -5.8444 O.2      1 ZINC000008551184   -0.4400
56     C56    -4.0834   11.1014   -7.6044 C.ar     1 ZINC000008551184   -0.1400
57     C57    -4.9224   10.7080   -8.6481 C.ar     1 ZINC000008551184   -0.0700
58     C58    -5.5326   11.6624   -9.4356 C.ar     1 ZINC000008551184   -0.1300
59     C59    -5.3141   13.0069   -9.1928 C.ar     1 ZINC000008551184   -0.0900
60     C60    -4.4836   13.4035   -8.1598 C.ar     1 ZINC000008551184   -0.1300
61     C61    -3.8718   12.4594   -7.3612 C.ar     1 ZINC000008551184   -0.0600
62     H62     0.9273    1.7171    0.2410 H        1 ZINC000008551184    0.0500
63     H63    -0.6966    1.8597   -0.4738 H        1 ZINC000008551184    0.0600
64     H64    -0.5157    1.5492    1.2695 H        1 ZINC000008551184    0.0800
65     H65     0.0362   -0.7245    2.0879 H        1 ZINC000008551184    0.0800
66     H66     0.6331   -1.9505    0.9439 H        1 ZINC000008551184    0.0600
67     H67     1.6022   -0.4943    1.2737 H        1 ZINC000008551184    0.0500
68     H68    -2.0617   -0.1228   -0.9028 H        1 ZINC000008551184    0.0500
69     H69    -1.5712   -1.7147   -0.2755 H        1 ZINC000008551184    0.0500
70     H70    -7.3362    2.1185    4.7976 H        1 ZINC000008551184    0.0600
71     H71    -7.1569    0.7770    5.9537 H        1 ZINC000008551184    0.1000
72     H72    -6.4312    5.7695    4.3559 H        1 ZINC000008551184    0.2300
73     H73    -5.4912   10.5036    4.5864 H        1 ZINC000008551184    0.4200
74     H74    -4.8786   11.5629    5.7376 H        1 ZINC000008551184    0.4000
75     H75    -3.9887    9.0381    9.4294 H        1 ZINC000008551184    0.2000
76     H76    -6.5780    5.6946    9.3069 H        1 ZINC000008551184    0.3500
77     H77    -0.1335   -2.3166   -1.5195 H        1 ZINC000008551184    0.3900
78     H78     0.2500    2.0677   -1.9666 H        1 ZINC000008551184    0.4000
79     H79    -0.7064    1.7378   -4.6035 H        1 ZINC000008551184    0.0700
80     H80    -2.1021    1.7576   -3.4990 H        1 ZINC000008551184    0.0900
81     H81    -1.3490    3.9367   -2.5864 H        1 ZINC000008551184    0.1100
82     H82     0.0467    3.9170   -3.6909 H        1 ZINC000008551184    0.1000
83     H83    -1.4348    6.1170   -4.1681 H        1 ZINC000008551184    0.4000
84     H84    -2.3912    5.7871   -6.8050 H        1 ZINC000008551184    0.0800
85     H85    -3.7869    5.8069   -5.7005 H        1 ZINC000008551184    0.0800
86     H86    -3.0338    7.9860   -4.7879 H        1 ZINC000008551184    0.1100
87     H87    -1.6381    7.9663   -5.8924 H        1 ZINC000008551184    0.1000
88     H88    -5.0933    9.6589   -8.8391 H        1 ZINC000008551184    0.1400
89     H89    -6.1821   11.3594  -10.2436 H        1 ZINC000008551184    0.1300
90     H90    -5.7936   13.7500   -9.8127 H        1 ZINC000008551184    0.1300
91     H91    -4.3168   14.4546   -7.9757 H        1 ZINC000008551184    0.1300
92     H92    -3.2237   12.7703   -6.5552 H        1 ZINC000008551184    0.1400
@<TRIPOS>BOND
1     1     2     1
2     1     62    1
3     1     63    1
4     1     64    1
5     2     3     1
6     2     4     1
7     2     40    1
8     3     65    1
9     3     66    1
10    3     67    1
11    4     5     1
12    4     68    1
13    4     69    1
14    5     6     1
15    6     7     ar
16    6     8     ar
17    6     9     1
18    9     10    1
19    10    11    ar
20    10    12    ar
21    10    13    1
22    13    14    1
23    14    15    1
24    14    70    1
25    14    71    1
26    15    16    1
27    15    33    1
28    15    17    1
29    17    18    1
30    18    19    1
31    18    20    1
32    18    30    1
33    20    29    1
34    20    21    1
35    21    22    2
36    21    72    1
37    22    23    1
38    23    29    ar
39    23    24    ar
40    24    25    1
41    24    26    ar
42    25    73    1
43    25    74    1
44    26    27    ar
45    27    28    ar
46    27    75    1
47    28    29    ar
48    30    31    1
49    30    32    1
50    30    33    1
51    32    76    1
52    33    34    1
53    33    35    1
54    35    36    1
55    36    37    ar
56    36    38    ar
57    36    39    ar
58    40    41    1
59    40    42    1
60    40    43    1
61    42    77    1
62    43    44    2
63    43    45    am
64    45    46    1
65    45    78    1
66    46    47    1
67    46    79    1
68    46    80    1
69    47    48    1
70    47    81    1
71    47    82    1
72    48    49    2
73    48    50    am
74    50    51    1
75    50    83    1
76    51    52    1
77    51    84    1
78    51    85    1
79    52    53    1
80    52    86    1
81    52    87    1
82    53    54    1
83    54    55    2
84    54    56    1
85    56    61    ar
86    56    57    ar
87    57    58    ar
88    57    88    1
89    58    59    ar
90    58    89    1
91    59    60    ar
92    59    90    1
93    60    61    ar
94    60    91    1
95    61    92    1
@<TRIPOS>SUBSTRUCTURE
1   ZINC000008551184 1     RESIDUE    1   A     ZIN   1
@<TRIPOS>MOLECULE
ZINC000008551120
88    90    1     0     0
SMALL
USER_CHARGES
@<TRIPOS>ATOM
1      C1     -0.3414  -17.8534   -2.6576 C.3      1 ZINC000008551120   -0.1400
2      C2     -0.3997  -16.3522   -2.3683 C.3      1 ZINC000008551120   -0.1500
3      C3      0.3762  -15.6068   -3.4235 C.2      1 ZINC000008551120    0.3300
4      O4      0.9223  -16.2165   -4.3191 O.2      1 ZINC000008551120   -0.4500
5      S5      0.4871  -13.8996   -3.3585 S.3      1 ZINC000008551120   -0.1200
6      C6      1.5006  -13.5943   -4.8267 C.3      1 ZINC000008551120   -0.1200
7      C7      1.7386  -12.0906   -4.9785 C.3      1 ZINC000008551120    0.1400
8      N8      2.5589  -11.8435   -6.1669 N.am     1 ZINC000008551120   -0.7300
9      C9      2.8977  -10.5827   -6.5016 C.2      1 ZINC000008551120    0.5200
10     O10     2.5236   -9.6527   -5.8190 O.2      1 ZINC000008551120   -0.5300
11     C11     3.7415  -10.3286   -7.7241 C.3      1 ZINC000008551120   -0.1500
12     C12     3.9796   -8.8249   -7.8759 C.3      1 ZINC000008551120    0.1400
13     N13     4.7998   -8.5778   -9.0643 N.am     1 ZINC000008551120   -0.7400
14     C14     5.1387   -7.3170   -9.3990 C.2      1 ZINC000008551120    0.5000
15     O15     4.6890   -6.3814   -8.7719 O.2      1 ZINC000008551120   -0.5300
16     C16     6.0765   -7.0698  -10.5525 C.3      1 ZINC000008551120    0.1000
17     H17     5.6577   -6.3021  -11.2031 H        1 ZINC000008551120    0.1400
18     O18     6.2497   -8.2794  -11.2933 O.3      1 ZINC000008551120   -0.5500
19     C19     7.4310   -6.6012  -10.0172 C.3      1 ZINC000008551120   -0.0900
20     C20     7.2709   -5.2326   -9.3523 C.3      1 ZINC000008551120   -0.1400
21     C21     7.9500   -7.6095   -8.9901 C.3      1 ZINC000008551120   -0.1400
22     C22     8.4267   -6.4930  -11.1738 C.3      1 ZINC000008551120    0.1500
23     O23     9.6919   -6.0554  -10.6738 O.3      1 ZINC000008551120   -0.7700
24     P24    10.9776   -5.8317  -11.6166 P.3      1 ZINC000008551120    2.3000
25     O25    11.2645   -7.1251  -12.4115 O.co2    1 ZINC000008551120   -1.1100
26     O26    10.6995   -4.6735  -12.6006 O.co2    1 ZINC000008551120   -1.1100
27     O27    12.2542   -5.4673  -10.7058 O.3      1 ZINC000008551120   -1.0900
28     P28    13.8420   -5.4301  -10.9692 P.3      1 ZINC000008551120    2.2900
29     O29    14.1239   -4.7347  -12.3198 O.co2    1 ZINC000008551120   -1.1000
30     O30    14.3915   -6.8736  -11.0087 O.co2    1 ZINC000008551120   -1.1100
31     O31    14.5637   -4.6134   -9.7842 O.3      1 ZINC000008551120   -0.7700
32     C32    15.9612   -4.3149   -9.7835 C.3      1 ZINC000008551120    0.1400
33     C33    16.3147   -3.5316   -8.5177 C.3      1 ZINC000008551120    0.0700
34     H34    15.6804   -2.6497   -8.4285 H        1 ZINC000008551120    0.1000
35     O35    16.1749   -4.3715   -7.3511 O.3      1 ZINC000008551120   -0.3500
36     C36    16.9754   -3.7391   -6.3288 C.3      1 ZINC000008551120    0.2600
37     H37    16.4439   -2.8881   -5.9030 H        1 ZINC000008551120    0.1200
38     N38    17.3168   -4.7028   -5.2795 N.pl3    1 ZINC000008551120   -0.4500
39     C39    17.3669   -6.0584   -5.4146 C.2      1 ZINC000008551120    0.2900
40     N40    17.7038   -6.6058   -4.2831 N.2      1 ZINC000008551120   -0.4800
41     C41    17.8907   -5.6393   -3.3525 C.ar     1 ZINC000008551120   -0.1000
42     C42    18.2522   -5.6314   -1.9947 C.ar     1 ZINC000008551120    0.5000
43     N43    18.5071   -6.8142   -1.3230 N.pl3    1 ZINC000008551120   -0.8300
44     N44    18.3439   -4.4616   -1.3705 N.ar     1 ZINC000008551120   -0.6000
45     C45    18.1029   -3.3281   -2.0035 C.ar     1 ZINC000008551120    0.3400
46     N46    17.7611   -3.2871   -3.2741 N.ar     1 ZINC000008551120   -0.5400
47     C47    17.6504   -4.4062   -3.9822 C.ar     1 ZINC000008551120    0.3000
48     C48    18.2497   -3.2651   -7.0622 C.3      1 ZINC000008551120    0.0600
49     H49    19.0416   -4.0085   -6.9711 H        1 ZINC000008551120    0.0700
50     O50    18.6852   -2.0057   -6.5462 O.3      1 ZINC000008551120   -0.5000
51     C51    17.8044   -3.1229   -8.5367 C.3      1 ZINC000008551120    0.1500
52     H52    18.3758   -3.7968   -9.1750 H        1 ZINC000008551120    0.0800
53     O53    17.9538   -1.7716   -8.9768 O.3      1 ZINC000008551120   -0.7200
54     P54    18.8751   -1.3541  -10.2294 P.3      1 ZINC000008551120    2.1200
55     O55    20.3294   -1.8945  -10.0111 O.co2    1 ZINC000008551120   -1.1900
56     O56    18.2812   -1.9689  -11.5423 O.co2    1 ZINC000008551120   -1.1700
57     O57    18.9113    0.2072  -10.3536 O.co2    1 ZINC000008551120   -1.1700
58     H58    -0.7769  -18.0519   -3.6369 H        1 ZINC000008551120    0.0600
59     H59     0.6968  -18.1853   -2.6475 H        1 ZINC000008551120    0.0600
60     H60    -0.9027  -18.3926   -1.8944 H        1 ZINC000008551120    0.0700
61     H61    -1.4379  -16.0202   -2.3783 H        1 ZINC000008551120    0.1000
62     H62     0.0357  -16.1537   -1.3890 H        1 ZINC000008551120    0.1100
63     H63     2.4577  -14.1048   -4.7201 H        1 ZINC000008551120    0.1000
64     H64     0.9841  -13.9714   -5.7095 H        1 ZINC000008551120    0.1000
65     H65     0.7814  -11.5802   -5.0851 H        1 ZINC000008551120    0.0800
66     H66     2.2551  -11.7136   -4.0958 H        1 ZINC000008551120    0.0800
67     H67     2.8581  -12.5874   -6.7129 H        1 ZINC000008551120    0.4000
68     H68     4.6987  -10.8390   -7.6175 H        1 ZINC000008551120    0.1100
69     H69     3.2251  -10.7056   -8.6069 H        1 ZINC000008551120    0.1000
70     H70     3.0224   -8.3144   -7.9825 H        1 ZINC000008551120    0.0700
71     H71     4.4960   -8.4479   -6.9931 H        1 ZINC000008551120    0.0800
72     H72     5.0991   -9.3216   -9.6103 H        1 ZINC000008551120    0.4000
73     H73     6.6195   -9.0079  -10.7759 H        1 ZINC000008551120    0.3700
74     H74     6.6224   -5.3254   -8.4811 H        1 ZINC000008551120    0.0600
75     H75     8.2479   -4.8636   -9.0403 H        1 ZINC000008551120    0.0800
76     H76     6.8282   -4.5335  -10.0619 H        1 ZINC000008551120    0.0500
77     H77     8.0640   -8.5846   -9.4637 H        1 ZINC000008551120    0.0500
78     H78     8.9150   -7.2757   -8.6087 H        1 ZINC000008551120    0.0800
79     H79     7.2406   -7.6866   -8.1661 H        1 ZINC000008551120    0.0400
80     H80     8.5408   -7.4681  -11.6474 H        1 ZINC000008551120    0.0600
81     H81     8.0570   -5.7747  -11.9055 H        1 ZINC000008551120    0.0500
82     H82    16.5311   -5.2438   -9.8071 H        1 ZINC000008551120    0.0600
83     H83    16.2053   -3.7165  -10.6612 H        1 ZINC000008551120    0.1000
84     H84    17.1574   -6.5984   -6.3262 H        1 ZINC000008551120    0.2300
85     H85    18.4371   -7.6617   -1.7896 H        1 ZINC000008551120    0.4200
86     H86    18.7559   -6.7958   -0.3856 H        1 ZINC000008551120    0.4000
87     H87    18.1891   -2.3998   -1.4582 H        1 ZINC000008551120    0.2000
88     H88    18.9198   -2.0249   -5.6083 H        1 ZINC000008551120    0.3500
@<TRIPOS>BOND
1     1     2     1
2     1     58    1
3     1     59    1
4     1     60    1
5     2     3     1
6     2     61    1
7     2     62    1
8     3     4     2
9     3     5     1
10    5     6     1
11    6     7     1
12    6     63    1
13    6     64    1
14    7     8     1
15    7     65    1
16    7     66    1
17    8     9     am
18    8     67    1
19    9     10    2
20    9     11    1
21    11    12    1
22    11    68    1
23    11    69    1
24    12    13    1
25    12    70    1
26    12    71    1
27    13    14    am
28    13    72    1
29    14    15    2
30    14    16    1
31    16    17    1
32    16    18    1
33    16    19    1
34    18    73    1
35    19    20    1
36    19    21    1
37    19    22    1
38    20    74    1
39    20    75    1
40    20    76    1
41    21    77    1
42    21    78    1
43    21    79    1
44    22    23    1
45    22    80    1
46    22    81    1
47    23    24    1
48    24    25    ar
49    24    26    ar
50    24    27    1
51    27    28    1
52    28    29    ar
53    28    30    ar
54    28    31    1
55    31    32    1
56    32    33    1
57    32    82    1
58    32    83    1
59    33    34    1
60    33    51    1
61    33    35    1
62    35    36    1
63    36    37    1
64    36    38    1
65    36    48    1
66    38    47    1
67    38    39    1
68    39    40    2
69    39    84    1
70    40    41    1
71    41    47    ar
72    41    42    ar
73    42    43    1
74    42    44    ar
75    43    85    1
76    43    86    1
77    44    45    ar
78    45    46    ar
79    45    87    1
80    46    47    ar
81    48    49    1
82    48    50    1
83    48    51    1
84    50    88    1
85    51    52    1
86    51    53    1
87    53    54    1
88    54    55    ar
89    54    56    ar
90    54    57    ar
@<TRIPOS>SUBSTRUCTURE
1   ZINC000008551120 1     RESIDUE    1   A     ZIN   1
@<TRIPOS>MOLECULE
ZINC000008551587
92    94    1     0     0
SMALL
USER_CHARGES
@<TRIPOS>ATOM
1      C1    -18.7520   -7.3856   -1.7149 C.3      1 ZINC000008551587   -0.1900
2      C2    -17.5886   -8.3749   -1.8071 C.3      1 ZINC000008551587    0.1100
3      H3    -17.6652   -9.1022   -0.9989 H        1 ZINC000008551587    0.1100
4      O4    -17.6382   -9.0528   -3.0642 O.3      1 ZINC000008551587   -0.5500
5      C5    -16.2645   -7.6177   -1.6880 C.3      1 ZINC000008551587   -0.1800
6      C6    -15.1240   -8.6022   -1.6554 C.2      1 ZINC000008551587    0.3300
7      O7    -15.3482   -9.7927   -1.7210 O.2      1 ZINC000008551587   -0.4300
8      S8    -13.5119   -8.0406   -1.5257 S.3      1 ZINC000008551587   -0.1300
9      C9    -12.6273   -9.6197   -1.5353 C.3      1 ZINC000008551587   -0.1200
10     C10   -11.1231   -9.3623   -1.4257 C.3      1 ZINC000008551587    0.1400
11     N11   -10.4071  -10.6404   -1.4335 N.am     1 ZINC000008551587   -0.7300
12     C12    -9.0623  -10.6600   -1.3462 C.2      1 ZINC000008551587    0.5200
13     O13    -8.4449   -9.6195   -1.2613 O.2      1 ZINC000008551587   -0.5300
14     C14    -8.3258  -11.9747   -1.3542 C.3      1 ZINC000008551587   -0.1500
15     C15    -6.8216  -11.7173   -1.2446 C.3      1 ZINC000008551587    0.1400
16     N16    -6.1056  -12.9954   -1.2524 N.am     1 ZINC000008551587   -0.7400
17     C17    -4.7608  -13.0150   -1.1651 C.2      1 ZINC000008551587    0.5000
18     O18    -4.1373  -11.9747   -1.1740 O.2      1 ZINC000008551587   -0.5300
19     C19    -4.0318  -14.3295   -1.0566 C.3      1 ZINC000008551587    0.1000
20     H20    -3.2095  -14.3491   -1.7718 H        1 ZINC000008551587    0.1400
21     O21    -4.9351  -15.3999   -1.3398 O.3      1 ZINC000008551587   -0.5500
22     C22    -3.4787  -14.4904    0.3609 C.3      1 ZINC000008551587   -0.0900
23     C23    -2.4022  -13.4324    0.6114 C.3      1 ZINC000008551587   -0.1400
24     C24    -4.6121  -14.3146    1.3735 C.3      1 ZINC000008551587   -0.1400
25     C25    -2.8688  -15.8851    0.5150 C.3      1 ZINC000008551587    0.1500
26     O26    -2.3523  -16.0354    1.8389 O.3      1 ZINC000008551587   -0.7700
27     P27    -1.6370  -17.3829    2.3533 P.3      1 ZINC000008551587    2.3000
28     O28    -2.5826  -18.5846    2.1323 O.co2    1 ZINC000008551587   -1.1100
29     O29    -0.3283  -17.6052    1.5629 O.co2    1 ZINC000008551587   -1.1100
30     O30    -1.3001  -17.2465    3.9218 O.3      1 ZINC000008551587   -1.0900
31     P31    -0.8895  -18.2947    5.0728 P.3      1 ZINC000008551587    2.2900
32     O32     0.1907  -19.2574    4.5311 O.co2    1 ZINC000008551587   -1.1000
33     O33    -2.1341  -19.1048    5.4993 O.co2    1 ZINC000008551587   -1.1100
34     O34    -0.3078  -17.4957    6.3436 O.3      1 ZINC000008551587   -0.7700
35     C35     0.2401  -18.1497    7.4900 C.3      1 ZINC000008551587    0.1400
36     C36     0.6979  -17.1007    8.5054 C.3      1 ZINC000008551587    0.0700
37     H37     1.3834  -16.3943    8.0371 H        1 ZINC000008551587    0.1000
38     O38    -0.4408  -16.4052    9.0580 O.3      1 ZINC000008551587   -0.3500
39     C39     0.0270  -15.8361   10.3001 C.3      1 ZINC000008551587    0.2600
40     H40     0.6105  -14.9355   10.1089 H        1 ZINC000008551587    0.1200
41     N41    -1.1043  -15.5323   11.1800 N.pl3    1 ZINC000008551587   -0.4500
42     C42    -2.3350  -16.1173   11.1426 C.2      1 ZINC000008551587    0.2900
43     N43    -3.0975  -15.6083   12.0662 N.2      1 ZINC000008551587   -0.4800
44     C44    -2.4067  -14.6669   12.7531 C.ar     1 ZINC000008551587   -0.1000
45     C45    -2.7034  -13.8107   13.8269 C.ar     1 ZINC000008551587    0.5000
46     N46    -3.9539  -13.8253   14.4195 N.pl3    1 ZINC000008551587   -0.8300
47     N47    -1.7550  -12.9867   14.2605 N.ar     1 ZINC000008551587   -0.6000
48     C48    -0.5589  -12.9662   13.7015 C.ar     1 ZINC000008551587    0.3400
49     N49    -0.2364  -13.7494   12.6938 N.ar     1 ZINC000008551587   -0.5400
50     C50    -1.1176  -14.6110   12.1966 C.ar     1 ZINC000008551587    0.3000
51     C51     0.9185  -16.9318   10.9254 C.3      1 ZINC000008551587    0.0600
52     H52     0.3441  -17.5377   11.6261 H        1 ZINC000008551587    0.0700
53     O53     2.0467  -16.3469   11.5789 O.3      1 ZINC000008551587   -0.5000
54     C54     1.3727  -17.7828    9.7161 C.3      1 ZINC000008551587    0.1500
55     H55     1.0221  -18.8097    9.8185 H        1 ZINC000008551587    0.0800
56     O56     2.7956  -17.7512    9.5878 O.3      1 ZINC000008551587   -0.7200
57     P57     3.7091  -19.0764    9.6263 P.3      1 ZINC000008551587    2.1200
58     O58     3.4175  -19.8736   10.9431 O.co2    1 ZINC000008551587   -1.1900
59     O59     3.3771  -19.9756    8.3871 O.co2    1 ZINC000008551587   -1.1700
60     O60     5.2214  -18.6696    9.5862 O.co2    1 ZINC000008551587   -1.1700
61     H61   -19.6953   -7.9250   -1.7998 H        1 ZINC000008551587    0.0700
62     H62   -18.7141   -6.8685   -0.7561 H        1 ZINC000008551587    0.0700
63     H63   -18.6754   -6.6582   -2.5232 H        1 ZINC000008551587    0.0600
64     H64   -17.5752   -8.4660   -3.8302 H        1 ZINC000008551587    0.3700
65     H65   -16.1471   -6.9540   -2.5446 H        1 ZINC000008551587    0.1100
66     H66   -16.2634   -7.0299   -0.7700 H        1 ZINC000008551587    0.1100
67     H67   -12.9549  -10.2248   -0.6900 H        1 ZINC000008551587    0.1000
68     H68   -12.8386  -10.1489   -2.4645 H        1 ZINC000008551587    0.1000
69     H69   -10.7955   -8.7572   -2.2711 H        1 ZINC000008551587    0.0800
70     H70   -10.9118   -8.8331   -0.4965 H        1 ZINC000008551587    0.0800
71     H71   -10.9009  -11.4725   -1.5015 H        1 ZINC000008551587    0.4000
72     H72    -8.6533  -12.5798   -0.5089 H        1 ZINC000008551587    0.1100
73     H73    -8.5371  -12.5039   -2.2834 H        1 ZINC000008551587    0.1000
74     H74    -6.4940  -11.1122   -2.0900 H        1 ZINC000008551587    0.0700
75     H75    -6.6102  -11.1881   -0.3155 H        1 ZINC000008551587    0.0800
76     H76    -6.5993  -13.8275   -1.3204 H        1 ZINC000008551587    0.4000
77     H77    -5.6932  -15.4437   -0.7410 H        1 ZINC000008551587    0.3700
78     H78    -2.8530  -12.4406    0.5785 H        1 ZINC000008551587    0.0600
79     H79    -1.9538  -13.5954    1.5915 H        1 ZINC000008551587    0.0800
80     H80    -1.6330  -13.5077   -0.1572 H        1 ZINC000008551587    0.0500
81     H81    -5.3790  -15.0683    1.1950 H        1 ZINC000008551587    0.0500
82     H82    -4.2181  -14.4292    2.3833 H        1 ZINC000008551587    0.0800
83     H83    -5.0466  -13.3210    1.2637 H        1 ZINC000008551587    0.0400
84     H84    -3.6358  -16.6388    0.3365 H        1 ZINC000008551587    0.0600
85     H85    -2.0614  -16.0103   -0.2064 H        1 ZINC000008551587    0.0500
86     H86    -0.5199  -18.7863    7.9430 H        1 ZINC000008551587    0.0600
87     H87     1.0918  -18.7592    7.1881 H        1 ZINC000008551587    0.1000
88     H88    -2.6334  -16.8890   10.4484 H        1 ZINC000008551587    0.2300
89     H89    -4.6377  -14.4315   14.0942 H        1 ZINC000008551587    0.4200
90     H90    -4.1466  -13.2293   15.1602 H        1 ZINC000008551587    0.4000
91     H91     0.1824  -12.2809   14.0852 H        1 ZINC000008551587    0.2000
92     H92     1.8157  -15.7556   12.3083 H        1 ZINC000008551587    0.3500
@<TRIPOS>BOND
1     1     2     1
2     1     61    1
3     1     62    1
4     1     63    1
5     2     3     1
6     2     4     1
7     2     5     1
8     4     64    1
9     5     6     1
10    5     65    1
11    5     66    1
12    6     7     2
13    6     8     1
14    8     9     1
15    9     10    1
16    9     67    1
17    9     68    1
18    10    11    1
19    10    69    1
20    10    70    1
21    11    12    am
22    11    71    1
23    12    13    2
24    12    14    1
25    14    15    1
26    14    72    1
27    14    73    1
28    15    16    1
29    15    74    1
30    15    75    1
31    16    17    am
32    16    76    1
33    17    18    2
34    17    19    1
35    19    20    1
36    19    21    1
37    19    22    1
38    21    77    1
39    22    23    1
40    22    24    1
41    22    25    1
42    23    78    1
43    23    79    1
44    23    80    1
45    24    81    1
46    24    82    1
47    24    83    1
48    25    26    1
49    25    84    1
50    25    85    1
51    26    27    1
52    27    28    ar
53    27    29    ar
54    27    30    1
55    30    31    1
56    31    32    ar
57    31    33    ar
58    31    34    1
59    34    35    1
60    35    36    1
61    35    86    1
62    35    87    1
63    36    37    1
64    36    54    1
65    36    38    1
66    38    39    1
67    39    40    1
68    39    41    1
69    39    51    1
70    41    50    1
71    41    42    1
72    42    43    2
73    42    88    1
74    43    44    1
75    44    50    ar
76    44    45    ar
77    45    46    1
78    45    47    ar
79    46    89    1
80    46    90    1
81    47    48    ar
82    48    49    ar
83    48    91    1
84    49    50    ar
85    51    52    1
86    51    53    1
87    51    54    1
88    53    92    1
89    54    55    1
90    54    56    1
91    56    57    1
92    57    58    ar
93    57    59    ar
94    57    60    ar
@<TRIPOS>SUBSTRUCTURE
1   ZINC000008551587 1     RESIDUE    1   A     ZIN   1
@<TRIPOS>MOLECULE
ZINC000008551763
95    97    1     0     0
SMALL
USER_CHARGES
@<TRIPOS>ATOM
1      C1     -5.6832   -5.9395  -19.6335 C.3      1 ZINC000008551763   -0.1500
2      C2     -5.2641   -7.0979  -18.7262 C.3      1 ZINC000008551763   -0.1200
3      C3     -6.0570   -7.0347  -17.4192 C.3      1 ZINC000008551763   -0.1000
4      C4     -5.6441   -8.1756  -16.5255 C.2      1 ZINC000008551763   -0.0500
5      C5     -5.2174   -7.9315  -15.2898 C.2      1 ZINC000008551763   -0.2200
6      C6     -4.8144   -9.0452  -14.4175 C.2      1 ZINC000008551763    0.3800
7      O7     -4.8715  -10.1897  -14.8264 O.2      1 ZINC000008551763   -0.4500
8      S8     -4.2490   -8.7218  -12.7803 S.3      1 ZINC000008551763   -0.1400
9      C9     -3.9145  -10.4114  -12.2238 C.3      1 ZINC000008551763   -0.1100
10     C10    -3.3972  -10.3812  -10.7842 C.3      1 ZINC000008551763    0.1400
11     N11    -3.1264  -11.7487  -10.3338 N.am     1 ZINC000008551763   -0.7300
12     C12    -2.6596  -11.9680   -9.0887 C.2      1 ZINC000008551763    0.5200
13     O13    -2.4637  -11.0334   -8.3411 O.2      1 ZINC000008551763   -0.5300
14     C14    -2.3811  -13.3747   -8.6253 C.3      1 ZINC000008551763   -0.1500
15     C15    -1.8638  -13.3445   -7.1857 C.3      1 ZINC000008551763    0.1400
16     N16    -1.5931  -14.7120   -6.7353 N.am     1 ZINC000008551763   -0.7400
17     C17    -1.1262  -14.9314   -5.4902 C.2      1 ZINC000008551763    0.5000
18     O18    -0.8441  -13.9939   -4.7744 O.2      1 ZINC000008551763   -0.5300
19     C19    -0.9549  -16.3417   -4.9873 C.3      1 ZINC000008551763    0.1000
20     H20    -1.4734  -16.4534   -4.0351 H        1 ZINC000008551763    0.1400
21     O21    -1.5032  -17.2565   -5.9384 O.3      1 ZINC000008551763   -0.5500
22     C22     0.5340  -16.6372   -4.7951 C.3      1 ZINC000008551763   -0.0900
23     C23     1.2834  -16.3490   -6.0975 C.3      1 ZINC000008551763   -0.1400
24     C24     1.0902  -15.7499   -3.6796 C.3      1 ZINC000008551763   -0.1400
25     C25     0.7171  -18.1081   -4.4160 C.3      1 ZINC000008551763    0.1500
26     O26     2.1077  -18.3841   -4.2365 O.3      1 ZINC000008551763   -0.7700
27     P27     2.6679  -19.8382   -3.8314 P.3      1 ZINC000008551763    2.3000
28     O28     1.9742  -20.3147   -2.5358 O.co2    1 ZINC000008551763   -1.1100
29     O29     2.3740  -20.8391   -4.9711 O.co2    1 ZINC000008551763   -1.1100
30     O30     4.2572  -19.7525   -3.5889 O.3      1 ZINC000008551763   -1.0900
31     P31     5.3362  -20.7233   -2.8922 P.3      1 ZINC000008551763    2.2900
32     O32     5.0974  -22.1770   -3.3579 O.co2    1 ZINC000008551763   -1.1000
33     O33     5.1852  -20.6432   -1.3567 O.co2    1 ZINC000008551763   -1.1100
34     O34     6.8212  -20.2629   -3.3102 O.3      1 ZINC000008551763   -0.7700
35     C35     7.9948  -20.9881   -2.9375 C.3      1 ZINC000008551763    0.1400
36     C36     9.2308  -20.2797   -3.4954 C.3      1 ZINC000008551763    0.0700
37     H37     9.1310  -20.1347   -4.5711 H        1 ZINC000008551763    0.1000
38     O38     9.4250  -19.0111   -2.8330 O.3      1 ZINC000008551763   -0.3500
39     C39    10.8137  -18.6781   -3.0482 C.3      1 ZINC000008551763    0.2600
40     H40    10.9586  -18.2877   -4.0555 H        1 ZINC000008551763    0.1200
41     N41    11.2639  -17.7009   -2.0539 N.pl3    1 ZINC000008551763   -0.4500
42     C42    10.7168  -17.4922   -0.8229 C.2      1 ZINC000008551763    0.2900
43     N43    11.3649  -16.5496   -0.2023 N.2      1 ZINC000008551763   -0.4800
44     C44    12.3661  -16.0946   -0.9933 C.ar     1 ZINC000008551763   -0.1000
45     C45    13.3631  -15.1136   -0.8595 C.ar     1 ZINC000008551763    0.5000
46     N46    13.4645  -14.3604    0.2970 N.pl3    1 ZINC000008551763   -0.8300
47     N47    14.2068  -14.9262   -1.8692 N.ar     1 ZINC000008551763   -0.6000
48     C48    14.1178  -15.6405   -2.9762 C.ar     1 ZINC000008551763    0.3400
49     N49    13.2004  -16.5693   -3.1461 N.ar     1 ZINC000008551763   -0.5400
50     C50    12.3171  -16.8320   -2.1886 C.ar     1 ZINC000008551763    0.2900
51     C51    11.5712  -20.0132   -2.8748 C.3      1 ZINC000008551763    0.0600
52     H52    11.9386  -20.1141   -1.8536 H        1 ZINC000008551763    0.0700
53     O53    12.6522  -20.1002   -3.8054 O.3      1 ZINC000008551763   -0.5000
54     C54    10.5055  -21.0926   -3.1784 C.3      1 ZINC000008551763    0.1500
55     H55    10.3454  -21.7270   -2.3066 H        1 ZINC000008551763    0.0800
56     O56    10.8975  -21.8806   -4.3042 O.3      1 ZINC000008551763   -0.7200
57     P57    11.0905  -23.4773   -4.2324 P.3      1 ZINC000008551763    2.1200
58     O58    12.1047  -23.8300   -3.0916 O.co2    1 ZINC000008551763   -1.1900
59     O59     9.7110  -24.1571   -3.9334 O.co2    1 ZINC000008551763   -1.1700
60     O60    11.6435  -23.9986   -5.6024 O.co2    1 ZINC000008551763   -1.1700
61     H61    -6.7486   -6.0154  -19.8509 H        1 ZINC000008551763    0.0500
62     H62    -5.4813   -4.9933  -19.1315 H        1 ZINC000008551763    0.0600
63     H63    -5.1183   -5.9845  -20.5646 H        1 ZINC000008551763    0.0600
64     H64    -5.4659   -8.0441  -19.2282 H        1 ZINC000008551763    0.0700
65     H65    -4.1986   -7.0220  -18.5088 H        1 ZINC000008551763    0.0700
66     H66    -5.8551   -6.0885  -16.9172 H        1 ZINC000008551763    0.0800
67     H67    -7.1224   -7.1106  -17.6366 H        1 ZINC000008551763    0.0900
68     H68    -5.6948   -9.1915  -16.8884 H        1 ZINC000008551763    0.1300
69     H69    -5.1667   -6.9156  -14.9268 H        1 ZINC000008551763    0.1400
70     H70    -4.8328  -10.9969  -12.2677 H        1 ZINC000008551763    0.1000
71     H71    -3.1632  -10.8648  -12.8704 H        1 ZINC000008551763    0.1000
72     H72    -2.4789   -9.7956  -10.7403 H        1 ZINC000008551763    0.0800
73     H73    -4.1485   -9.9277  -10.1376 H        1 ZINC000008551763    0.0800
74     H74    -3.2832  -12.4962  -10.9317 H        1 ZINC000008551763    0.4000
75     H75    -3.2994  -13.9603   -8.6692 H        1 ZINC000008551763    0.1000
76     H76    -1.6298  -13.8282   -9.2719 H        1 ZINC000008551763    0.1100
77     H77    -0.9455  -12.7590   -7.1419 H        1 ZINC000008551763    0.0800
78     H78    -2.6151  -12.8911   -6.5392 H        1 ZINC000008551763    0.0700
79     H79    -1.7498  -15.4596   -7.3333 H        1 ZINC000008551763    0.4000
80     H80    -1.0885  -17.2123   -6.8109 H        1 ZINC000008551763    0.3700
81     H81     1.1529  -15.3011   -6.3676 H        1 ZINC000008551763    0.0400
82     H82     2.3441  -16.5596   -5.9605 H        1 ZINC000008551763    0.0800
83     H83     0.8872  -16.9811   -6.8922 H        1 ZINC000008551763    0.0500
84     H84     0.4834  -15.8713   -2.7822 H        1 ZINC000008551763    0.0500
85     H85     2.1189  -16.0388   -3.4644 H        1 ZINC000008551763    0.0800
86     H86     1.0644  -14.7076   -3.9974 H        1 ZINC000008551763    0.0600
87     H87     0.1832  -18.3134   -3.4882 H        1 ZINC000008551763    0.0500
88     H88     0.3209  -18.7402   -5.2107 H        1 ZINC000008551763    0.0600
89     H89     8.0628  -21.0355   -1.8507 H        1 ZINC000008551763    0.0600
90     H90     7.9414  -21.9986   -3.3427 H        1 ZINC000008551763    0.1000
91     H91     9.8701  -18.0295   -0.4219 H        1 ZINC000008551763    0.2300
92     H92    12.8430  -14.5068    1.0272 H        1 ZINC000008551763    0.4200
93     H93    14.1572  -13.6860    0.3774 H        1 ZINC000008551763    0.4000
94     H94    14.8239  -15.4556   -3.7723 H        1 ZINC000008551763    0.2000
95     H95    13.3201  -19.4092   -3.6980 H        1 ZINC000008551763    0.3500
@<TRIPOS>BOND
1     1     2     1
2     1     61    1
3     1     62    1
4     1     63    1
5     2     3     1
6     2     64    1
7     2     65    1
8     3     4     1
9     3     66    1
10    3     67    1
11    4     5     2
12    4     68    1
13    5     6     1
14    5     69    1
15    6     7     2
16    6     8     1
17    8     9     1
18    9     10    1
19    9     70    1
20    9     71    1
21    10    11    1
22    10    72    1
23    10    73    1
24    11    12    am
25    11    74    1
26    12    13    2
27    12    14    1
28    14    15    1
29    14    75    1
30    14    76    1
31    15    16    1
32    15    77    1
33    15    78    1
34    16    17    am
35    16    79    1
36    17    18    2
37    17    19    1
38    19    20    1
39    19    21    1
40    19    22    1
41    21    80    1
42    22    23    1
43    22    24    1
44    22    25    1
45    23    81    1
46    23    82    1
47    23    83    1
48    24    84    1
49    24    85    1
50    24    86    1
51    25    26    1
52    25    87    1
53    25    88    1
54    26    27    1
55    27    28    ar
56    27    29    ar
57    27    30    1
58    30    31    1
59    31    32    ar
60    31    33    ar
61    31    34    1
62    34    35    1
63    35    36    1
64    35    89    1
65    35    90    1
66    36    37    1
67    36    54    1
68    36    38    1
69    38    39    1
70    39    40    1
71    39    41    1
72    39    51    1
73    41    50    1
74    41    42    1
75    42    43    2
76    42    91    1
77    43    44    1
78    44    50    ar
79    44    45    ar
80    45    46    1
81    45    47    ar
82    46    92    1
83    46    93    1
84    47    48    ar
85    48    49    ar
86    48    94    1
87    49    50    ar
88    51    52    1
89    51    53    1
90    51    54    1
91    53    95    1
92    54    55    1
93    54    56    1
94    56    57    1
95    57    58    ar
96    57    59    ar
97    57    60    ar
@<TRIPOS>SUBSTRUCTURE
1   ZINC000008551763 1     RESIDUE    1   A     ZIN   1
@<TRIPOS>MOLECULE
ZINC000008216371
89    91    1     0     0
SMALL
USER_CHARGES
@<TRIPOS>ATOM
1      C1     15.5806    4.4546    0.1541 C.3      1 ZINC000008216371   -0.1800
2      C2     15.6150    5.1979    1.4909 C.3      1 ZINC000008216371    0.0800
3      H3     14.9402    6.0529    1.4487 H        1 ZINC000008216371    0.0900
4      O4     16.9448    5.6528    1.7489 O.3      1 ZINC000008216371   -0.5500
5      C5     15.1793    4.2682    2.5940 C.2      1 ZINC000008216371    0.3300
6      O6     15.9636    3.9478    3.4626 O.2      1 ZINC000008216371   -0.4200
7      S7     13.5777    3.6640    2.6216 S.3      1 ZINC000008216371   -0.1000
8      C8     13.6513    2.6464    4.1167 C.3      1 ZINC000008216371   -0.1200
9      C9     12.2914    1.9858    4.3515 C.3      1 ZINC000008216371    0.1400
10     N10    12.3511    1.1621    5.5616 N.am     1 ZINC000008216371   -0.7300
11     C11    11.2613    0.4807    5.9673 C.2      1 ZINC000008216371    0.5200
12     O12    10.2313    0.5494    5.3307 O.2      1 ZINC000008216371   -0.5300
13     C13    11.3227   -0.3665    7.2121 C.3      1 ZINC000008216371   -0.1500
14     C14     9.9628   -1.0271    7.4469 C.3      1 ZINC000008216371    0.1400
15     N15    10.0224   -1.8508    8.6570 N.am     1 ZINC000008216371   -0.7400
16     C16     8.9326   -2.5322    9.0627 C.2      1 ZINC000008216371    0.5000
17     O17     7.8779   -2.3913    8.4809 O.2      1 ZINC000008216371   -0.5300
18     C18     9.0248   -3.4692   10.2394 C.3      1 ZINC000008216371    0.1000
19     H19     8.2000   -3.2739   10.9248 H        1 ZINC000008216371    0.1400
20     O20    10.2660   -3.2627   10.9167 O.3      1 ZINC000008216371   -0.5500
21     C21     8.9469   -4.9156    9.7469 C.3      1 ZINC000008216371   -0.0900
22     C22     7.5611   -5.1786    9.1541 C.3      1 ZINC000008216371   -0.1400
23     C23    10.0129   -5.1471    8.6740 C.3      1 ZINC000008216371   -0.1400
24     C24     9.1889   -5.8676   10.9200 C.3      1 ZINC000008216371    0.1500
25     O25     9.1162   -7.2185   10.4599 O.3      1 ZINC000008216371   -0.7700
26     P26     9.3223   -8.4873   11.4294 P.3      1 ZINC000008216371    2.2900
27     O27    10.6793   -8.3638   12.1577 O.co2    1 ZINC000008216371   -1.1000
28     O28     8.1813   -8.5309   12.4702 O.co2    1 ZINC000008216371   -1.1100
29     O29     9.3034   -9.8392   10.5554 O.3      1 ZINC000008216371   -1.0900
30     P30     9.7436  -11.3615   10.8403 P.3      1 ZINC000008216371    2.2900
31     O31    11.0588  -11.3741   11.6509 O.co2    1 ZINC000008216371   -1.1000
32     O32     8.6354  -12.0759   11.6456 O.co2    1 ZINC000008216371   -1.1000
33     O33     9.9680  -12.1260    9.4413 O.3      1 ZINC000008216371   -0.7700
34     C34    10.4643  -13.4634    9.3561 C.3      1 ZINC000008216371    0.1400
35     C35    10.5559  -13.8807    7.8870 C.3      1 ZINC000008216371    0.0700
36     H36     9.5947  -13.7399    7.3926 H        1 ZINC000008216371    0.1000
37     O37    11.5840  -13.1233    7.2123 O.3      1 ZINC000008216371   -0.3500
38     C38    11.9243  -13.9007    6.0437 C.3      1 ZINC000008216371    0.2600
39     H39    11.1734  -13.7645    5.2654 H        1 ZINC000008216371    0.1200
40     N40    13.2484  -13.5199    5.5456 N.pl3    1 ZINC000008216371   -0.4500
41     C41    14.2486  -12.9448    6.2718 C.2      1 ZINC000008216371    0.2900
42     N42    15.2873  -12.7416    5.5146 N.2      1 ZINC000008216371   -0.4800
43     C43    15.0207  -13.1720    4.2581 C.ar     1 ZINC000008216371   -0.1000
44     C44    15.7410  -13.2080    3.0522 C.ar     1 ZINC000008216371    0.5000
45     N45    17.0365  -12.7260    2.9866 N.pl3    1 ZINC000008216371   -0.8300
46     N46    15.1493  -13.7163    1.9761 N.ar     1 ZINC000008216371   -0.6000
47     C47    13.9137  -14.1790    2.0294 C.ar     1 ZINC000008216371    0.3400
48     N48    13.2011  -14.1652    3.1363 N.ar     1 ZINC000008216371   -0.5400
49     C49    13.7113  -13.6820    4.2643 C.ar     1 ZINC000008216371    0.3000
50     C50    11.9321  -15.3660    6.5329 C.3      1 ZINC000008216371    0.0600
51     H51    12.9414  -15.6708    6.8097 H        1 ZINC000008216371    0.0700
52     O52    11.4072  -16.2330    5.5255 O.3      1 ZINC000008216371   -0.5000
53     C53    11.0083  -15.3534    7.7735 C.3      1 ZINC000008216371    0.1500
54     H54    11.5611  -15.6514    8.6644 H        1 ZINC000008216371    0.0800
55     O55     9.8860  -16.2145    7.5708 O.3      1 ZINC000008216371   -0.7200
56     P56     9.5480  -17.4567    8.5376 P.3      1 ZINC000008216371    2.1200
57     O57    10.7961  -18.3988    8.6331 O.co2    1 ZINC000008216371   -1.1900
58     O58     9.1856  -16.9237    9.9655 O.co2    1 ZINC000008216371   -1.1700
59     O59     8.3334  -18.2565    7.9549 O.co2    1 ZINC000008216371   -1.1700
60     H60    14.5662    4.1076   -0.0427 H        1 ZINC000008216371    0.0800
61     H61    15.8957    5.1271   -0.6438 H        1 ZINC000008216371    0.0800
62     H62    16.2553    3.5996    0.1963 H        1 ZINC000008216371    0.0700
63     H63    17.2911    6.2567    1.0777 H        1 ZINC000008216371    0.3900
64     H64    14.4132    1.8764    3.9950 H        1 ZINC000008216371    0.1100
65     H65    13.9027    3.2743    4.9715 H        1 ZINC000008216371    0.1000
66     H66    11.5296    2.7558    4.4733 H        1 ZINC000008216371    0.0800
67     H67    12.0401    1.3579    3.4967 H        1 ZINC000008216371    0.0800
68     H68    13.1748    1.1072    6.0708 H        1 ZINC000008216371    0.4000
69     H69    12.0845   -1.1365    7.0904 H        1 ZINC000008216371    0.1100
70     H70    11.5740    0.2614    8.0669 H        1 ZINC000008216371    0.1000
71     H71     9.2009   -0.2571    7.5687 H        1 ZINC000008216371    0.0700
72     H72     9.7114   -1.6550    6.5921 H        1 ZINC000008216371    0.0800
73     H73    10.8461   -1.9057    9.1662 H        1 ZINC000008216371    0.4000
74     H74    11.0453   -3.4189   10.3659 H        1 ZINC000008216371    0.3700
75     H75     7.4194   -4.5554    8.2712 H        1 ZINC000008216371    0.0600
76     H76     7.4790   -6.2289    8.8745 H        1 ZINC000008216371    0.0800
77     H77     6.7978   -4.9389    9.8944 H        1 ZINC000008216371    0.0500
78     H78    11.0001   -4.9597    9.0963 H        1 ZINC000008216371    0.0500
79     H79     9.9574   -6.1776    8.3231 H        1 ZINC000008216371    0.0800
80     H80     9.8405   -4.4689    7.8383 H        1 ZINC000008216371    0.0400
81     H81    10.1761   -5.6802   11.3423 H        1 ZINC000008216371    0.0600
82     H82     8.4295   -5.7026   11.6843 H        1 ZINC000008216371    0.0500
83     H83    11.4538  -13.5134    9.8104 H        1 ZINC000008216371    0.0600
84     H84     9.7880  -14.1361    9.8834 H        1 ZINC000008216371    0.1000
85     H85    14.1877  -12.6943    7.3205 H        1 ZINC000008216371    0.2300
86     H86    17.4576  -12.3576    3.7790 H        1 ZINC000008216371    0.4200
87     H87    17.5235  -12.7564    2.1483 H        1 ZINC000008216371    0.4000
88     H88    13.4709  -14.5835    1.1313 H        1 ZINC000008216371    0.2000
89     H89    11.9156  -16.2334    4.7030 H        1 ZINC000008216371    0.3500
@<TRIPOS>BOND
1     1     2     1
2     1     60    1
3     1     61    1
4     1     62    1
5     2     3     1
6     2     4     1
7     2     5     1
8     4     63    1
9     5     6     2
10    5     7     1
11    7     8     1
12    8     9     1
13    8     64    1
14    8     65    1
15    9     10    1
16    9     66    1
17    9     67    1
18    10    11    am
19    10    68    1
20    11    12    2
21    11    13    1
22    13    14    1
23    13    69    1
24    13    70    1
25    14    15    1
26    14    71    1
27    14    72    1
28    15    16    am
29    15    73    1
30    16    17    2
31    16    18    1
32    18    19    1
33    18    20    1
34    18    21    1
35    20    74    1
36    21    22    1
37    21    23    1
38    21    24    1
39    22    75    1
40    22    76    1
41    22    77    1
42    23    78    1
43    23    79    1
44    23    80    1
45    24    25    1
46    24    81    1
47    24    82    1
48    25    26    1
49    26    27    ar
50    26    28    ar
51    26    29    1
52    29    30    1
53    30    31    ar
54    30    32    ar
55    30    33    1
56    33    34    1
57    34    35    1
58    34    83    1
59    34    84    1
60    35    36    1
61    35    53    1
62    35    37    1
63    37    38    1
64    38    39    1
65    38    40    1
66    38    50    1
67    40    49    1
68    40    41    1
69    41    42    2
70    41    85    1
71    42    43    1
72    43    49    ar
73    43    44    ar
74    44    45    1
75    44    46    ar
76    45    86    1
77    45    87    1
78    46    47    ar
79    47    48    ar
80    47    88    1
81    48    49    ar
82    50    51    1
83    50    52    1
84    50    53    1
85    52    89    1
86    53    54    1
87    53    55    1
88    55    56    1
89    56    57    ar
90    56    58    ar
91    56    59    ar
@<TRIPOS>SUBSTRUCTURE
1   ZINC000008216371 1     RESIDUE    1   A     ZIN   1
@<TRIPOS>MOLECULE
ZINC000008551760
97    99    1     0     0
SMALL
USER_CHARGES
@<TRIPOS>ATOM
1      C1      9.7533   -9.0572   20.6105 C.3      1 ZINC000008551760   -0.1500
2      C2      9.3302  -10.0632   19.5382 C.3      1 ZINC000008551760   -0.1300
3      C3      8.7348   -9.3152   18.3436 C.3      1 ZINC000008551760   -0.1200
4      C4      8.3117  -10.3212   17.2714 C.3      1 ZINC000008551760   -0.1100
5      C5      7.7163   -9.5732   16.0768 C.3      1 ZINC000008551760   -0.1500
6      C6      7.2995  -10.5641   15.0206 C.2      1 ZINC000008551760    0.3300
7      O7      7.4627  -11.7521   15.2052 O.2      1 ZINC000008551760   -0.4500
8      S8      6.5959  -10.0134   13.5603 S.3      1 ZINC000008551760   -0.1200
9      C9      6.3204  -11.5966   12.7275 C.3      1 ZINC000008551760   -0.1200
10     C10     5.6795  -11.3491   11.3605 C.3      1 ZINC000008551760    0.1400
11     N11     5.4565  -12.6306   10.6865 N.am     1 ZINC000008551760   -0.7300
12     C12     4.8982  -12.6588    9.4601 C.2      1 ZINC000008551760    0.5200
13     O13     4.5802  -11.6233    8.9146 O.2      1 ZINC000008551760   -0.5300
14     C14     4.6688  -13.9770    8.7668 C.3      1 ZINC000008551760   -0.1500
15     C15     4.0279  -13.7295    7.3997 C.3      1 ZINC000008551760    0.1400
16     N16     3.8049  -15.0110    6.7257 N.am     1 ZINC000008551760   -0.7400
17     C17     3.2466  -15.0392    5.4994 C.2      1 ZINC000008551760    0.5000
18     O18     2.8437  -14.0136    4.9928 O.2      1 ZINC000008551760   -0.5300
19     C19     3.1228  -16.3452    4.7576 C.3      1 ZINC000008551760    0.1000
20     H20     2.1092  -16.4485    4.3704 H        1 ZINC000008551760    0.1400
21     O21     3.4054  -17.4270    5.6475 O.3      1 ZINC000008551760   -0.5500
22     C22     4.1175  -16.3678    3.5953 C.3      1 ZINC000008551760   -0.0900
23     C23     3.7256  -15.3040    2.5679 C.3      1 ZINC000008551760   -0.1400
24     C24     5.5239  -16.0746    4.1218 C.3      1 ZINC000008551760   -0.1400
25     C25     4.0978  -17.7473    2.9339 C.3      1 ZINC000008551760    0.1500
26     O26     5.0269  -17.7684    1.8483 O.3      1 ZINC000008551760   -0.7700
27     P27     5.2681  -19.0656    0.9258 P.3      1 ZINC000008551760    2.3000
28     O28     5.6378  -20.2711    1.8187 O.co2    1 ZINC000008551760   -1.1100
29     O29     3.9778  -19.3847    0.1381 O.co2    1 ZINC000008551760   -1.1100
30     O30     6.4688  -18.7742   -0.1065 O.3      1 ZINC000008551760   -1.0900
31     P31     7.3830  -19.7047   -1.0502 P.3      1 ZINC000008551760    2.2900
32     O32     6.4898  -20.7317   -1.7814 O.co2    1 ZINC000008551760   -1.1000
33     O33     8.4235  -20.4506   -0.1854 O.co2    1 ZINC000008551760   -1.1100
34     O34     8.1435  -18.7878   -2.1332 O.3      1 ZINC000008551760   -0.7700
35     C35     8.9506  -19.3284   -3.1812 C.3      1 ZINC000008551760    0.1400
36     C36     9.5220  -18.1873   -4.0252 C.3      1 ZINC000008551760    0.0700
37     H37     8.7197  -17.5415   -4.3818 H        1 ZINC000008551760    0.1000
38     O38    10.4782  -17.4242   -3.2575 O.3      1 ZINC000008551760   -0.3500
39     C39    11.2896  -16.7373   -4.2352 C.3      1 ZINC000008551760    0.2600
40     H40    10.7593  -15.8687   -4.6256 H        1 ZINC000008551760    0.1200
41     N41    12.5663  -16.3305   -3.6430 N.pl3    1 ZINC000008551760   -0.4500
42     C42    13.1725  -16.9001   -2.5630 C.2      1 ZINC000008551760    0.2900
43     N43    14.2933  -16.2894   -2.3088 N.2      1 ZINC000008551760   -0.4800
44     C44    14.4771  -15.2920   -3.2069 C.ar     1 ZINC000008551760   -0.1000
45     C45    15.4755  -14.3267   -3.4210 C.ar     1 ZINC000008551760    0.5000
46     N46    16.5878  -14.2644   -2.6000 N.pl3    1 ZINC000008551760   -0.8300
47     N47    15.3269  -13.4753   -4.4307 N.ar     1 ZINC000008551760   -0.6000
48     C48    14.2692  -13.5276   -5.2194 C.ar     1 ZINC000008551760    0.3400
49     N49    13.3095  -14.4139   -5.0565 N.ar     1 ZINC000008551760   -0.5400
50     C50    13.3742  -15.3101   -4.0774 C.ar     1 ZINC000008551760    0.3000
51     C51    11.5203  -17.7751   -5.3559 C.3      1 ZINC000008551760    0.0600
52     H52    12.4640  -18.2987   -5.2033 H        1 ZINC000008551760    0.0700
53     O53    11.5021  -17.1414   -6.6366 O.3      1 ZINC000008551760   -0.5000
54     C54    10.3282  -18.7510   -5.2163 C.3      1 ZINC000008551760    0.1500
55     H55    10.6826  -19.7574   -4.9938 H        1 ZINC000008551760    0.0800
56     O56     9.5392  -18.7514   -6.4078 O.3      1 ZINC000008551760   -0.7200
57     P57     9.2678  -20.0776   -7.2793 P.3      1 ZINC000008551760    2.1200
58     O58    10.6354  -20.7323   -7.6737 O.co2    1 ZINC000008551760   -1.1900
59     O59     8.4264  -21.0942   -6.4350 O.co2    1 ZINC000008551760   -1.1700
60     O60     8.4776  -19.6968   -8.5773 O.co2    1 ZINC000008551760   -1.1700
61     H61     8.8840   -8.4860   20.9361 H        1 ZINC000008551760    0.0500
62     H62    10.1775   -9.5901   21.4615 H        1 ZINC000008551760    0.0500
63     H63    10.5000   -8.3788   20.1978 H        1 ZINC000008551760    0.0500
64     H64    10.1996  -10.6344   19.2126 H        1 ZINC000008551760    0.0600
65     H65     8.5835  -10.7416   19.9509 H        1 ZINC000008551760    0.0600
66     H66     7.8655   -8.7440   18.6693 H        1 ZINC000008551760    0.0600
67     H67     9.4815   -8.6368   17.9309 H        1 ZINC000008551760    0.0600
68     H68     9.1811  -10.8924   16.9457 H        1 ZINC000008551760    0.0700
69     H69     7.5650  -10.9996   17.6841 H        1 ZINC000008551760    0.0700
70     H70     6.8470   -9.0020   16.4024 H        1 ZINC000008551760    0.1000
71     H71     8.4630   -8.8948   15.6641 H        1 ZINC000008551760    0.1100
72     H72     7.2738  -12.1079   12.5946 H        1 ZINC000008551760    0.1000
73     H73     5.6578  -12.2151   13.3329 H        1 ZINC000008551760    0.1000
74     H74     4.7260  -10.8378   11.4935 H        1 ZINC000008551760    0.0800
75     H75     6.3421  -10.7306   10.7552 H        1 ZINC000008551760    0.0800
76     H76     5.7108  -13.4588   11.1228 H        1 ZINC000008551760    0.4000
77     H77     5.6223  -14.4883    8.6338 H        1 ZINC000008551760    0.1100
78     H78     4.0062  -14.5955    9.3721 H        1 ZINC000008551760    0.1000
79     H79     3.0745  -13.2182    7.5327 H        1 ZINC000008551760    0.0700
80     H80     4.6905  -13.1110    6.7944 H        1 ZINC000008551760    0.0800
81     H81     4.0592  -15.8392    7.1620 H        1 ZINC000008551760    0.4000
82     H82     4.2928  -17.3995    6.0307 H        1 ZINC000008551760    0.3700
83     H83     3.8148  -14.3148    3.0169 H        1 ZINC000008551760    0.0600
84     H84     4.3870  -15.3719    1.7041 H        1 ZINC000008551760    0.0800
85     H85     2.6957  -15.4674    2.2505 H        1 ZINC000008551760    0.0500
86     H86     5.8031  -16.8325    4.8537 H        1 ZINC000008551760    0.0500
87     H87     6.2325  -16.0907    3.2937 H        1 ZINC000008551760    0.0800
88     H88     5.5379  -15.0918    4.5929 H        1 ZINC000008551760    0.0400
89     H89     4.3771  -18.5052    3.6659 H        1 ZINC000008551760    0.0600
90     H90     3.0959  -17.9562    2.5589 H        1 ZINC000008551760    0.0500
91     H91     9.7683  -19.9054   -2.7492 H        1 ZINC000008551760    0.0600
92     H92     8.3417  -19.9767   -3.8113 H        1 ZINC000008551760    0.1000
93     H93    12.7802  -17.7346   -2.0008 H        1 ZINC000008551760    0.2300
94     H94    16.6850  -14.8916   -1.8665 H        1 ZINC000008551760    0.4200
95     H95    17.2702  -13.5934   -2.7581 H        1 ZINC000008551760    0.4000
96     H96    14.1883  -12.8166   -6.0282 H        1 ZINC000008551760    0.2000
97     H97    12.1933  -16.4756   -6.7558 H        1 ZINC000008551760    0.3500
@<TRIPOS>BOND
1     1     2     1
2     1     61    1
3     1     62    1
4     1     63    1
5     2     3     1
6     2     64    1
7     2     65    1
8     3     4     1
9     3     66    1
10    3     67    1
11    4     5     1
12    4     68    1
13    4     69    1
14    5     6     1
15    5     70    1
16    5     71    1
17    6     7     2
18    6     8     1
19    8     9     1
20    9     10    1
21    9     72    1
22    9     73    1
23    10    11    1
24    10    74    1
25    10    75    1
26    11    12    am
27    11    76    1
28    12    13    2
29    12    14    1
30    14    15    1
31    14    77    1
32    14    78    1
33    15    16    1
34    15    79    1
35    15    80    1
36    16    17    am
37    16    81    1
38    17    18    2
39    17    19    1
40    19    20    1
41    19    21    1
42    19    22    1
43    21    82    1
44    22    23    1
45    22    24    1
46    22    25    1
47    23    83    1
48    23    84    1
49    23    85    1
50    24    86    1
51    24    87    1
52    24    88    1
53    25    26    1
54    25    89    1
55    25    90    1
56    26    27    1
57    27    28    ar
58    27    29    ar
59    27    30    1
60    30    31    1
61    31    32    ar
62    31    33    ar
63    31    34    1
64    34    35    1
65    35    36    1
66    35    91    1
67    35    92    1
68    36    37    1
69    36    54    1
70    36    38    1
71    38    39    1
72    39    40    1
73    39    41    1
74    39    51    1
75    41    50    1
76    41    42    1
77    42    43    2
78    42    93    1
79    43    44    1
80    44    50    ar
81    44    45    ar
82    45    46    1
83    45    47    ar
84    46    94    1
85    46    95    1
86    47    48    ar
87    48    49    ar
88    48    96    1
89    49    50    ar
90    51    52    1
91    51    53    1
92    51    54    1
93    53    97    1
94    54    55    1
95    54    56    1
96    56    57    1
97    57    58    ar
98    57    59    ar
99    57    60    ar
@<TRIPOS>SUBSTRUCTURE
1   ZINC000008551760 1     RESIDUE    1   A     ZIN   1
@<TRIPOS>MOLECULE
ZINC000008216703
94    96    1     0     0
SMALL
USER_CHARGES
@<TRIPOS>ATOM
1      C1      8.0727   -7.1254   17.1281 C.3      1 ZINC000008216703   -0.1500
2      C2      7.4363   -8.1344   16.1701 C.3      1 ZINC000008216703   -0.1100
3      C3      6.8587   -7.3957   14.9611 C.3      1 ZINC000008216703   -0.1200
4      H4      7.6382   -6.7897   14.4992 H        1 ZINC000008216703    0.1100
5      C5      5.7120   -6.4909   15.4164 C.3      1 ZINC000008216703   -0.1500
6      C6      6.3417   -8.3969   13.9605 C.2      1 ZINC000008216703    0.3300
7      O7      6.4269   -9.5849   14.1917 O.2      1 ZINC000008216703   -0.4500
8      S8      5.6343   -7.8581   12.4976 S.3      1 ZINC000008216703   -0.1200
9      C9      5.2236   -9.4506   11.7418 C.3      1 ZINC000008216703   -0.1200
10     C10     4.5603   -9.2145   10.3834 C.3      1 ZINC000008216703    0.1400
11     N11     4.2279  -10.5035    9.7717 N.am     1 ZINC000008216703   -0.7300
12     C12     3.6319  -10.5423    8.5635 C.2      1 ZINC000008216703    0.5200
13     O13     3.3708   -9.5101    7.9827 O.2      1 ZINC000008216703   -0.5300
14     C14     3.2899  -11.8682    7.9342 C.3      1 ZINC000008216703   -0.1500
15     C15     2.6266  -11.6322    6.5758 C.3      1 ZINC000008216703    0.1400
16     N16     2.2942  -12.9211    5.9641 N.am     1 ZINC000008216703   -0.7400
17     C17     1.6982  -12.9599    4.7559 C.2      1 ZINC000008216703    0.5000
18     O18     1.3529  -11.9299    4.2167 O.2      1 ZINC000008216703   -0.5300
19     C19     1.4609  -14.2832    4.0749 C.3      1 ZINC000008216703    0.1000
20     H20     0.4312  -14.3299    3.7204 H        1 ZINC000008216703    0.1400
21     O21     1.6940  -15.3449    5.0025 O.3      1 ZINC000008216703   -0.5500
22     C22     2.4158  -14.4243    2.8878 C.3      1 ZINC000008216703   -0.0900
23     C23     2.0683  -13.3785    1.8265 C.3      1 ZINC000008216703   -0.1400
24     C24     3.8546  -14.2107    3.3624 C.3      1 ZINC000008216703   -0.1400
25     C25     2.2796  -15.8250    2.2874 C.3      1 ZINC000008216703    0.1500
26     O26     3.1714  -15.9568    1.1787 O.3      1 ZINC000008216703   -0.7700
27     P27     3.2932  -17.3048    0.3067 P.3      1 ZINC000008216703    2.2900
28     O28     3.6045  -18.4957    1.2404 O.co2    1 ZINC000008216703   -1.1000
29     O29     1.9604  -17.5632   -0.4307 O.co2    1 ZINC000008216703   -1.1100
30     O30     4.4794  -17.1423   -0.7696 O.3      1 ZINC000008216703   -1.0900
31     P31     5.2971  -18.1736   -1.6970 P.3      1 ZINC000008216703    2.2900
32     O32     5.5961  -19.4606   -0.8962 O.co2    1 ZINC000008216703   -1.1000
33     O33     4.4538  -18.5262   -2.9426 O.co2    1 ZINC000008216703   -1.1000
34     O34     6.6821  -17.4962   -2.1608 O.3      1 ZINC000008216703   -0.7700
35     C35     7.6789  -18.1962   -2.9081 C.3      1 ZINC000008216703    0.1400
36     C36     8.8608  -17.2635   -3.1804 C.3      1 ZINC000008216703    0.0700
37     H37     8.5175  -16.3479   -3.6620 H        1 ZINC000008216703    0.1000
38     O38     9.5523  -16.9558   -1.9504 O.3      1 ZINC000008216703   -0.3500
39     C39    10.8690  -16.5198   -2.3529 C.3      1 ZINC000008216703    0.2600
40     H40    10.8354  -15.4900   -2.7085 H        1 ZINC000008216703    0.1200
41     N41    11.8101  -16.6425   -1.2369 N.pl3    1 ZINC000008216703   -0.4500
42     C42    11.6887  -17.4792   -0.1676 C.2      1 ZINC000008216703    0.2900
43     N43    12.7037  -17.3281    0.6327 N.2      1 ZINC000008216703   -0.4800
44     C44    13.5388  -16.3877    0.1293 C.ar     1 ZINC000008216703   -0.1000
45     C45    14.7566  -15.8232    0.5448 C.ar     1 ZINC000008216703    0.5000
46     N46    15.3593  -16.2281    1.7229 N.pl3    1 ZINC000008216703   -0.8300
47     N47    15.3165  -14.8917   -0.2203 N.ar     1 ZINC000008216703   -0.6000
48     C48    14.7489  -14.4996   -1.3462 C.ar     1 ZINC000008216703    0.3400
49     N49    13.6090  -14.9997   -1.7744 N.ar     1 ZINC000008216703   -0.5400
50     C50    12.9785  -15.9407   -1.0794 C.ar     1 ZINC000008216703    0.3000
51     C51    11.2663  -17.4729   -3.5019 C.3      1 ZINC000008216703    0.0600
52     H52    11.8545  -18.3072   -3.1198 H        1 ZINC000008216703    0.0700
53     O53    11.9952  -16.7673   -4.5083 O.3      1 ZINC000008216703   -0.5000
54     C54     9.9134  -17.9724   -4.0613 C.3      1 ZINC000008216703    0.1500
55     H55     9.8322  -19.0541   -3.9551 H        1 ZINC000008216703    0.0800
56     O56     9.7671  -17.5925   -5.4311 O.3      1 ZINC000008216703   -0.7200
57     P57     9.5452  -18.6580   -6.6175 P.3      1 ZINC000008216703    2.1200
58     O58    10.6986  -19.7178   -6.5901 O.co2    1 ZINC000008216703   -1.1900
59     O59     8.1684  -19.3793   -6.4210 O.co2    1 ZINC000008216703   -1.1700
60     O60     9.5527  -17.9136   -7.9960 O.co2    1 ZINC000008216703   -1.1700
61     H61     7.3163   -6.4157   17.4633 H        1 ZINC000008216703    0.0600
62     H62     8.4841   -7.6517   17.9894 H        1 ZINC000008216703    0.0600
63     H63     8.8709   -6.5899   16.6141 H        1 ZINC000008216703    0.0600
64     H64     8.1926   -8.8441   15.8349 H        1 ZINC000008216703    0.0700
65     H65     6.6380   -8.6698   16.6840 H        1 ZINC000008216703    0.0700
66     H66     5.3005   -5.9646   14.5551 H        1 ZINC000008216703    0.0700
67     H67     4.9325   -7.0968   15.8783 H        1 ZINC000008216703    0.0600
68     H68     6.0859   -5.7667   16.1401 H        1 ZINC000008216703    0.0700
69     H69     6.1344  -10.0335   11.6050 H        1 ZINC000008216703    0.1000
70     H70     4.5380   -9.9949   12.3912 H        1 ZINC000008216703    0.1000
71     H71     3.6495   -8.6316   10.5202 H        1 ZINC000008216703    0.0800
72     H72     5.2459   -8.6702    9.7340 H        1 ZINC000008216703    0.0800
73     H73     4.4367  -11.3291   10.2362 H        1 ZINC000008216703    0.4000
74     H74     4.2007  -12.4512    7.7974 H        1 ZINC000008216703    0.1100
75     H75     2.6043  -12.4126    8.5836 H        1 ZINC000008216703    0.1000
76     H76     1.7158  -11.0492    6.7126 H        1 ZINC000008216703    0.0700
77     H77     3.3123  -11.0878    5.9264 H        1 ZINC000008216703    0.0800
78     H78     2.5030  -13.7467    6.4286 H        1 ZINC000008216703    0.4000
79     H79     2.5923  -15.3649    5.3598 H        1 ZINC000008216703    0.3700
80     H80     2.2401  -12.3806    2.2299 H        1 ZINC000008216703    0.0600
81     H81     2.6968  -13.5288    0.9488 H        1 ZINC000008216703    0.0800
82     H82     1.0203  -13.4810    1.5449 H        1 ZINC000008216703    0.0500
83     H83     4.1022  -14.9558    4.1185 H        1 ZINC000008216703    0.0500
84     H84     4.5349  -14.3112    2.5167 H        1 ZINC000008216703    0.0800
85     H85     3.9517  -13.2128    3.7902 H        1 ZINC000008216703    0.0400
86     H86     2.5272  -16.5701    3.0435 H        1 ZINC000008216703    0.0600
87     H87     1.2546  -15.9772    1.9493 H        1 ZINC000008216703    0.0500
88     H88     8.0213  -19.0595   -2.3375 H        1 ZINC000008216703    0.0600
89     H89     7.2549  -18.5312   -3.8547 H        1 ZINC000008216703    0.1000
90     H90    10.8704  -18.1657   -0.0077 H        1 ZINC000008216703    0.2300
91     H91    14.9410  -16.9091    2.2726 H        1 ZINC000008216703    0.4200
92     H92    16.2001  -15.8309    1.9990 H        1 ZINC000008216703    0.4000
93     H93    15.2381  -13.7398   -1.9377 H        1 ZINC000008216703    0.2000
94     H94    12.8248  -16.3813   -4.1953 H        1 ZINC000008216703    0.3500
@<TRIPOS>BOND
1     1     2     1
2     1     61    1
3     1     62    1
4     1     63    1
5     2     3     1
6     2     64    1
7     2     65    1
8     3     4     1
9     3     5     1
10    3     6     1
11    5     66    1
12    5     67    1
13    5     68    1
14    6     7     2
15    6     8     1
16    8     9     1
17    9     10    1
18    9     69    1
19    9     70    1
20    10    11    1
21    10    71    1
22    10    72    1
23    11    12    am
24    11    73    1
25    12    13    2
26    12    14    1
27    14    15    1
28    14    74    1
29    14    75    1
30    15    16    1
31    15    76    1
32    15    77    1
33    16    17    am
34    16    78    1
35    17    18    2
36    17    19    1
37    19    20    1
38    19    21    1
39    19    22    1
40    21    79    1
41    22    23    1
42    22    24    1
43    22    25    1
44    23    80    1
45    23    81    1
46    23    82    1
47    24    83    1
48    24    84    1
49    24    85    1
50    25    26    1
51    25    86    1
52    25    87    1
53    26    27    1
54    27    28    ar
55    27    29    ar
56    27    30    1
57    30    31    1
58    31    32    ar
59    31    33    ar
60    31    34    1
61    34    35    1
62    35    36    1
63    35    88    1
64    35    89    1
65    36    37    1
66    36    54    1
67    36    38    1
68    38    39    1
69    39    40    1
70    39    41    1
71    39    51    1
72    41    50    1
73    41    42    1
74    42    43    2
75    42    90    1
76    43    44    1
77    44    50    ar
78    44    45    ar
79    45    46    1
80    45    47    ar
81    46    91    1
82    46    92    1
83    47    48    ar
84    48    49    ar
85    48    93    1
86    49    50    ar
87    51    52    1
88    51    53    1
89    51    54    1
90    53    94    1
91    54    55    1
92    54    56    1
93    56    57    1
94    57    58    ar
95    57    59    ar
96    57    60    ar
@<TRIPOS>SUBSTRUCTURE
1   ZINC000008216703 1     RESIDUE    1   A     ZIN   1
@<TRIPOS>MOLECULE
ZINC000008215552
90    92    1     0     0
SMALL
USER_CHARGES
@<TRIPOS>ATOM
1      C1     -0.2674    1.5568    0.3056 C.3      1 ZINC000008215552   -0.1300
2      C2     -0.0908    0.0591    0.0471 C.3      1 ZINC000008215552   -0.1000
3      C3      0.6086   -0.5862    1.2451 C.3      1 ZINC000008215552   -0.1500
4      C4     -1.4622   -0.5891   -0.1527 C.3      1 ZINC000008215552    0.1400
5      O5     -2.2547   -0.3985    1.0210 O.3      1 ZINC000008215552   -0.7600
6      P6     -3.7600   -0.9520    1.1621 P.3      1 ZINC000008215552    2.2900
7      O7     -4.6147   -0.4250   -0.0122 O.co2    1 ZINC000008215552   -1.1100
8      O8     -3.7453   -2.4967    1.1358 O.co2    1 ZINC000008215552   -1.1000
9      O9     -4.3900   -0.4449    2.5543 O.3      1 ZINC000008215552   -1.0900
10     P10    -5.8855   -0.3790    3.1469 P.3      1 ZINC000008215552    2.2900
11     O11    -6.6122   -1.7120    2.8605 O.co2    1 ZINC000008215552   -1.1000
12     O12    -6.6545    0.7812    2.4764 O.co2    1 ZINC000008215552   -1.1100
13     O13    -5.8223   -0.1330    4.7368 O.3      1 ZINC000008215552   -0.7700
14     C14    -6.9829   -0.1300    5.5706 C.3      1 ZINC000008215552    0.1400
15     C15    -6.5688    0.1319    7.0200 C.3      1 ZINC000008215552    0.0700
16     H16    -5.8093   -0.5848    7.3323 H        1 ZINC000008215552    0.1000
17     O17    -6.0766    1.4818    7.1662 O.3      1 ZINC000008215552   -0.3500
18     C18    -6.1907    1.7779    8.5751 C.3      1 ZINC000008215552    0.2600
19     H19    -5.3740    1.3137    9.1278 H        1 ZINC000008215552    0.1200
20     N20    -6.1942    3.2266    8.7932 N.pl3    1 ZINC000008215552   -0.4500
21     C21    -6.5551    4.1780    7.8860 C.2      1 ZINC000008215552    0.2900
22     N22    -6.4387    5.3620    8.4133 N.2      1 ZINC000008215552   -0.4800
23     C23    -5.9969    5.2462    9.6887 C.ar     1 ZINC000008215552   -0.1000
24     C24    -5.6944    6.1557   10.7162 C.ar     1 ZINC000008215552    0.5000
25     N25    -5.8352    7.5184   10.5197 N.pl3    1 ZINC000008215552   -0.8300
26     N26    -5.2704    5.6769   11.8812 N.ar     1 ZINC000008215552   -0.6000
27     C27    -5.1335    4.3784   12.0778 C.ar     1 ZINC000008215552    0.3400
28     N28    -5.4043    3.4900   11.1448 N.ar     1 ZINC000008215552   -0.5400
29     C29    -5.8403    3.8743    9.9497 C.ar     1 ZINC000008215552    0.2900
30     C30    -7.5438    1.1647    8.9990 C.3      1 ZINC000008215552    0.0600
31     H31    -8.3326    1.9159    8.9596 H        1 ZINC000008215552    0.0700
32     O32    -7.4512    0.6060   10.3110 O.3      1 ZINC000008215552   -0.5000
33     C33    -7.7978    0.0540    7.9528 C.3      1 ZINC000008215552    0.1500
34     H34    -8.7122    0.2564    7.3952 H        1 ZINC000008215552    0.0800
35     O35    -7.8724   -1.2241    8.5875 O.3      1 ZINC000008215552   -0.7200
36     P36    -9.1641   -2.1797    8.4856 P.3      1 ZINC000008215552    2.1200
37     O37   -10.4338   -1.3938    8.9596 O.co2    1 ZINC000008215552   -1.1900
38     O38    -9.3583   -2.6386    7.0003 O.co2    1 ZINC000008215552   -1.1700
39     O39    -8.9572   -3.4366    9.3977 O.co2    1 ZINC000008215552   -1.1700
40     C40     0.7577   -0.1450   -1.2096 C.3      1 ZINC000008215552    0.1100
41     H41     1.7658    0.2296   -1.0321 H        1 ZINC000008215552    0.1200
42     O42     0.1707    0.5661   -2.3013 O.3      1 ZINC000008215552   -0.5400
43     C43     0.8187   -1.6137   -1.5414 C.2      1 ZINC000008215552    0.4900
44     O44     0.2101   -2.0451   -2.4977 O.2      1 ZINC000008215552   -0.5200
45     N45     1.5496   -2.4478   -0.7756 N.am     1 ZINC000008215552   -0.7300
46     C46     1.7008   -3.8530   -1.1613 C.3      1 ZINC000008215552    0.1300
47     C47     2.5708   -4.5742   -0.1298 C.3      1 ZINC000008215552   -0.1500
48     C48     2.7263   -6.0197   -0.5265 C.2      1 ZINC000008215552    0.5200
49     O49     2.1937   -6.4325   -1.5350 O.2      1 ZINC000008215552   -0.5300
50     N50     3.4572   -6.8538    0.2393 N.am     1 ZINC000008215552   -0.7300
51     C51     3.6083   -8.2591   -0.1464 C.3      1 ZINC000008215552    0.1400
52     C52     4.4783   -8.9803    0.8851 C.3      1 ZINC000008215552   -0.1200
53     S53     4.6651  -10.7164    0.4086 S.3      1 ZINC000008215552   -0.1400
54     C54     5.6511  -11.2727    1.6928 C.2      1 ZINC000008215552    0.3300
55     O55     5.9971  -10.5067    2.5677 O.2      1 ZINC000008215552   -0.4500
56     C56     6.0893  -12.7140    1.7365 C.3      1 ZINC000008215552   -0.1200
57     C57     6.9547  -12.9465    2.9766 C.3      1 ZINC000008215552   -0.1700
58     C58     7.3929  -14.3877    3.0204 C.2      1 ZINC000008215552    0.4900
59     O59     7.0452  -15.1575    2.1411 O.co2    1 ZINC000008215552   -0.7000
60     O60     8.0951  -14.7839    3.9349 O.co2    1 ZINC000008215552   -0.7000
61     H61     0.7051    2.0091    0.4997 H        1 ZINC000008215552    0.0500
62     H62    -0.7182    2.0258   -0.5691 H        1 ZINC000008215552    0.0600
63     H63    -0.9150    1.7024    1.1702 H        1 ZINC000008215552    0.0800
64     H64     0.0716   -0.3328    2.1592 H        1 ZINC000008215552    0.0800
65     H65     0.6206   -1.6688    1.1190 H        1 ZINC000008215552    0.0600
66     H66     1.6320   -0.2166    1.3107 H        1 ZINC000008215552    0.0500
67     H67    -1.9605   -0.1294   -1.0062 H        1 ZINC000008215552    0.0500
68     H68    -1.3364   -1.6560   -0.3368 H        1 ZINC000008215552    0.0500
69     H69    -7.6654    0.6532    5.2405 H        1 ZINC000008215552    0.0600
70     H70    -7.4806   -1.0974    5.5040 H        1 ZINC000008215552    0.1000
71     H71    -6.8880    3.9785    6.8781 H        1 ZINC000008215552    0.2300
72     H72    -6.1459    7.8556    9.6649 H        1 ZINC000008215552    0.4200
73     H73    -5.6232    8.1362   11.2368 H        1 ZINC000008215552    0.4000
74     H74    -4.7859    4.0322   13.0400 H        1 ZINC000008215552    0.2000
75     H75    -7.2338    1.2504   10.9985 H        1 ZINC000008215552    0.3500
76     H76    -0.7291    0.2844   -2.5158 H        1 ZINC000008215552    0.3900
77     H77     1.9756   -2.1177    0.0309 H        1 ZINC000008215552    0.4000
78     H78     0.7196   -4.3259   -1.2032 H        1 ZINC000008215552    0.0800
79     H79     2.1747   -3.9119   -2.1411 H        1 ZINC000008215552    0.0700
80     H80     3.5520   -4.1014   -0.0879 H        1 ZINC000008215552    0.1000
81     H81     2.0969   -4.5153    0.8500 H        1 ZINC000008215552    0.1100
82     H82     3.8831   -6.5237    1.0458 H        1 ZINC000008215552    0.4000
83     H83     2.6271   -8.7319   -0.1883 H        1 ZINC000008215552    0.0800
84     H84     4.0822   -8.3180   -1.1262 H        1 ZINC000008215552    0.0800
85     H85     5.4595   -8.5074    0.9270 H        1 ZINC000008215552    0.1000
86     H86     4.0044   -8.9214    1.8649 H        1 ZINC000008215552    0.1000
87     H87     5.2119  -13.3593    1.7796 H        1 ZINC000008215552    0.1100
88     H88     6.6670  -12.9454    0.8417 H        1 ZINC000008215552    0.1000
89     H89     7.8321  -12.3011    2.9336 H        1 ZINC000008215552    0.0600
90     H90     6.3770  -12.7151    3.8715 H        1 ZINC000008215552    0.0700
@<TRIPOS>BOND
1     1     2     1
2     1     61    1
3     1     62    1
4     1     63    1
5     2     3     1
6     2     4     1
7     2     40    1
8     3     64    1
9     3     65    1
10    3     66    1
11    4     5     1
12    4     67    1
13    4     68    1
14    5     6     1
15    6     7     ar
16    6     8     ar
17    6     9     1
18    9     10    1
19    10    11    ar
20    10    12    ar
21    10    13    1
22    13    14    1
23    14    15    1
24    14    69    1
25    14    70    1
26    15    16    1
27    15    33    1
28    15    17    1
29    17    18    1
30    18    19    1
31    18    20    1
32    18    30    1
33    20    29    1
34    20    21    1
35    21    22    2
36    21    71    1
37    22    23    1
38    23    29    ar
39    23    24    ar
40    24    25    1
41    24    26    ar
42    25    72    1
43    25    73    1
44    26    27    ar
45    27    28    ar
46    27    74    1
47    28    29    ar
48    30    31    1
49    30    32    1
50    30    33    1
51    32    75    1
52    33    34    1
53    33    35    1
54    35    36    1
55    36    37    ar
56    36    38    ar
57    36    39    ar
58    40    41    1
59    40    42    1
60    40    43    1
61    42    76    1
62    43    44    2
63    43    45    am
64    45    46    1
65    45    77    1
66    46    47    1
67    46    78    1
68    46    79    1
69    47    48    1
70    47    80    1
71    47    81    1
72    48    49    2
73    48    50    am
74    50    51    1
75    50    82    1
76    51    52    1
77    51    83    1
78    51    84    1
79    52    53    1
80    52    85    1
81    52    86    1
82    53    54    1
83    54    55    2
84    54    56    1
85    56    57    1
86    56    87    1
87    56    88    1
88    57    58    1
89    57    89    1
90    57    90    1
91    58    59    ar
92    58    60    ar
@<TRIPOS>SUBSTRUCTURE
1   ZINC000008215552 1     RESIDUE    1   A     ZIN   1
